
---------- Begin Simulation Statistics ----------
final_tick                               94391573519000                       # Number of ticks from beginning of simulation (restored from checkpoints and never reset)
host_inst_rate                                  54305                       # Simulator instruction rate (inst/s)
host_mem_usage                                 849484                       # Number of bytes of host memory used
host_op_rate                                    83511                       # Simulator op (including micro ops) rate (op/s)
host_seconds                                 18414.35                       # Real time elapsed on the host
host_tick_rate                             5125979595                       # Simulator tick rate (ticks/s)
sim_freq                                 1000000000000                       # Frequency of simulated ticks
sim_insts                                  1000000001                       # Number of instructions simulated
sim_ops                                    1537797842                       # Number of ops (including micro ops) simulated
sim_seconds                                 94.391574                       # Number of seconds simulated
sim_ticks                                94391573519000                       # Number of ticks simulated
system.cpu.Branches                          66515282                       # Number of branches fetched
system.cpu.committedInsts                  1000000001                       # Number of instructions committed
system.cpu.committedOps                    1537797842                       # Number of ops (including micro ops) committed
system.cpu.dtb.rdAccesses                   231478362                       # TLB accesses on read requests
system.cpu.dtb.rdMisses                        166074                       # TLB misses on read requests
system.cpu.dtb.wrAccesses                   155811188                       # TLB accesses on write requests
system.cpu.dtb.wrMisses                        440579                       # TLB misses on write requests
system.cpu.idle_fraction                            0                       # Percentage of idle cycles
system.cpu.itb.rdAccesses                           0                       # TLB accesses on read requests
system.cpu.itb.rdMisses                             0                       # TLB misses on read requests
system.cpu.itb.wrAccesses                  1522398010                       # TLB accesses on write requests
system.cpu.itb.wrMisses                           254                       # TLB misses on write requests
system.cpu.not_idle_fraction                        1                       # Percentage of non-idle cycles
system.cpu.numCycles                     188783147038                       # number of cpu cycles simulated
system.cpu.numWorkItemsCompleted                    0                       # number of work items this cpu completed
system.cpu.numWorkItemsStarted                      0                       # number of work items this cpu started
system.cpu.num_busy_cycles               188783147038                       # Number of busy cycles
system.cpu.num_cc_register_reads            318224800                       # number of times the CC registers were read
system.cpu.num_cc_register_writes           161806945                       # number of times the CC registers were written
system.cpu.num_conditional_control_insts     54416770                       # number of instructions that are conditional controls
system.cpu.num_fp_alu_accesses             1048226655                       # Number of float alu accesses
system.cpu.num_fp_insts                    1048226655                       # number of float instructions
system.cpu.num_fp_register_reads           1810043411                       # number of times the floating registers were read
system.cpu.num_fp_register_writes           919054322                       # number of times the floating registers were written
system.cpu.num_func_calls                     5258005                       # number of times a function call or return occured
system.cpu.num_idle_cycles                          0                       # Number of idle cycles
system.cpu.num_int_alu_accesses             794244153                       # Number of integer alu accesses
system.cpu.num_int_insts                    794244153                       # number of integer instructions
system.cpu.num_int_register_reads          1714368074                       # number of times the integer registers were read
system.cpu.num_int_register_writes          396564838                       # number of times the integer registers were written
system.cpu.num_load_insts                   231478359                       # Number of load instructions
system.cpu.num_mem_refs                     387289541                       # number of memory refs
system.cpu.num_store_insts                  155811182                       # Number of store instructions
system.cpu.num_vec_alu_accesses                     0                       # Number of vector alu accesses
system.cpu.num_vec_insts                            0                       # number of vector instructions
system.cpu.num_vec_register_reads                   0                       # number of times the vector registers were read
system.cpu.num_vec_register_writes                  0                       # number of times the vector registers were written
system.cpu.op_class::No_OpClass                 83082      0.01%      0.01% # Class of executed instruction
system.cpu.op_class::IntAlu                 547210894     35.58%     35.59% # Class of executed instruction
system.cpu.op_class::IntMult                   120102      0.01%     35.59% # Class of executed instruction
system.cpu.op_class::IntDiv                      1723      0.00%     35.59% # Class of executed instruction
system.cpu.op_class::FloatAdd               134041797      8.72%     44.31% # Class of executed instruction
system.cpu.op_class::FloatCmp                       0      0.00%     44.31% # Class of executed instruction
system.cpu.op_class::FloatCvt                     128      0.00%     44.31% # Class of executed instruction
system.cpu.op_class::FloatMult                      0      0.00%     44.31% # Class of executed instruction
system.cpu.op_class::FloatMultAcc                   0      0.00%     44.31% # Class of executed instruction
system.cpu.op_class::FloatDiv                       0      0.00%     44.31% # Class of executed instruction
system.cpu.op_class::FloatMisc                      0      0.00%     44.31% # Class of executed instruction
system.cpu.op_class::FloatSqrt                      0      0.00%     44.31% # Class of executed instruction
system.cpu.op_class::SimdAdd                        0      0.00%     44.31% # Class of executed instruction
system.cpu.op_class::SimdAddAcc                     0      0.00%     44.31% # Class of executed instruction
system.cpu.op_class::SimdAlu                  7310418      0.48%     44.79% # Class of executed instruction
system.cpu.op_class::SimdCmp                        0      0.00%     44.79% # Class of executed instruction
system.cpu.op_class::SimdCvt                      180      0.00%     44.79% # Class of executed instruction
system.cpu.op_class::SimdMisc                   40332      0.00%     44.79% # Class of executed instruction
system.cpu.op_class::SimdMult                       0      0.00%     44.79% # Class of executed instruction
system.cpu.op_class::SimdMultAcc                    0      0.00%     44.79% # Class of executed instruction
system.cpu.op_class::SimdShift                      0      0.00%     44.79% # Class of executed instruction
system.cpu.op_class::SimdShiftAcc                   0      0.00%     44.79% # Class of executed instruction
system.cpu.op_class::SimdDiv                        0      0.00%     44.79% # Class of executed instruction
system.cpu.op_class::SimdSqrt                       0      0.00%     44.79% # Class of executed instruction
system.cpu.op_class::SimdFloatAdd           303292924     19.72%     64.51% # Class of executed instruction
system.cpu.op_class::SimdFloatAlu                   0      0.00%     64.51% # Class of executed instruction
system.cpu.op_class::SimdFloatCmp             5013338      0.33%     64.84% # Class of executed instruction
system.cpu.op_class::SimdFloatCvt               40002      0.00%     64.84% # Class of executed instruction
system.cpu.op_class::SimdFloatDiv             6759442      0.44%     65.28% # Class of executed instruction
system.cpu.op_class::SimdFloatMisc                  0      0.00%     65.28% # Class of executed instruction
system.cpu.op_class::SimdFloatMult          146698703      9.54%     74.82% # Class of executed instruction
system.cpu.op_class::SimdFloatMultAcc               0      0.00%     74.82% # Class of executed instruction
system.cpu.op_class::SimdFloatSqrt                  2      0.00%     74.82% # Class of executed instruction
system.cpu.op_class::SimdReduceAdd                  0      0.00%     74.82% # Class of executed instruction
system.cpu.op_class::SimdReduceAlu                  0      0.00%     74.82% # Class of executed instruction
system.cpu.op_class::SimdReduceCmp                  0      0.00%     74.82% # Class of executed instruction
system.cpu.op_class::SimdFloatReduceAdd             0      0.00%     74.82% # Class of executed instruction
system.cpu.op_class::SimdFloatReduceCmp             0      0.00%     74.82% # Class of executed instruction
system.cpu.op_class::SimdAes                        0      0.00%     74.82% # Class of executed instruction
system.cpu.op_class::SimdAesMix                     0      0.00%     74.82% # Class of executed instruction
system.cpu.op_class::SimdSha1Hash                   0      0.00%     74.82% # Class of executed instruction
system.cpu.op_class::SimdSha1Hash2                  0      0.00%     74.82% # Class of executed instruction
system.cpu.op_class::SimdSha256Hash                 0      0.00%     74.82% # Class of executed instruction
system.cpu.op_class::SimdSha256Hash2                0      0.00%     74.82% # Class of executed instruction
system.cpu.op_class::SimdShaSigma2                  0      0.00%     74.82% # Class of executed instruction
system.cpu.op_class::SimdShaSigma3                  0      0.00%     74.82% # Class of executed instruction
system.cpu.op_class::SimdPredAlu                    0      0.00%     74.82% # Class of executed instruction
system.cpu.op_class::MemRead                 56039088      3.64%     78.46% # Class of executed instruction
system.cpu.op_class::MemWrite                26639172      1.73%     80.19% # Class of executed instruction
system.cpu.op_class::FloatMemRead           175439271     11.41%     91.60% # Class of executed instruction
system.cpu.op_class::FloatMemWrite          129172010      8.40%    100.00% # Class of executed instruction
system.cpu.op_class::IprAccess                      0      0.00%    100.00% # Class of executed instruction
system.cpu.op_class::InstPrefetch                   0      0.00%    100.00% # Class of executed instruction
system.cpu.op_class::total                 1537902608                       # Class of executed instruction
system.cpu.valuePred.lookups                396319448                       # Number of VP lookups
system.cpu.valuePred.numCorrectPredicted    281935240                       # Number of value predictions
system.cpu.valuePred.numIncorrectPredicted     14293707                       # Number of incorrect value predictions
system.cpu.valuePred.numLoadCorrectPredicted     46684179                       # Number of Correct Load value predictions
system.cpu.valuePred.numLoadPredicted        47570060                       # Number of Load value predictions
system.cpu.valuePred.numPredicted           296229027                       # Number of value predictions
system.cpu.valuePred.valuePredAccuracy       0.951748                       # VP Accuracy
system.cpu.valuePred.valuePredCoverage       0.711384                       # VP Coverage
system.cpu.workload.numSyscalls                   372                       # Number of system calls
system.membus.snoop_filter.hit_multi_requests            0                       # Number of requests hitting in the snoop filter with multiple (>1) holders of the requested data.
system.membus.snoop_filter.hit_multi_snoops            0                       # Number of snoops hitting in the snoop filter with multiple (>1) holders of the requested data.
system.membus.snoop_filter.hit_single_requests            0                       # Number of requests hitting in the snoop filter with a single holder of the requested data.
system.membus.snoop_filter.hit_single_snoops            0                       # Number of snoops hitting in the snoop filter with a single holder of the requested data.
system.membus.snoop_filter.tot_requests             0                       # Total number of requests made to the snoop filter.
system.membus.snoop_filter.tot_snoops               0                       # Total number of snoops made to the snoop filter.
system.membus.trans_dist::ReadReq          1753876246                       # Transaction distribution
system.membus.trans_dist::ReadResp         1753876245                       # Transaction distribution
system.membus.trans_dist::WriteReq          155706486                       # Transaction distribution
system.membus.trans_dist::WriteResp         155706486                       # Transaction distribution
system.membus.pkt_count_system.cpu.icache_port::system.mem_ctrls.port   3044795895                       # Packet count per connected master and slave (bytes)
system.membus.pkt_count_system.cpu.icache_port::total   3044795895                       # Packet count per connected master and slave (bytes)
system.membus.pkt_count_system.cpu.dcache_port::system.mem_ctrls.port    774369568                       # Packet count per connected master and slave (bytes)
system.membus.pkt_count_system.cpu.dcache_port::total    774369568                       # Packet count per connected master and slave (bytes)
system.membus.pkt_count::total             3819165463                       # Packet count per connected master and slave (bytes)
system.membus.pkt_size_system.cpu.icache_port::system.mem_ctrls.port  12179183576                       # Cumulative packet size per connected master and slave (bytes)
system.membus.pkt_size_system.cpu.icache_port::total  12179183576                       # Cumulative packet size per connected master and slave (bytes)
system.membus.pkt_size_system.cpu.dcache_port::system.mem_ctrls.port   2927579813                       # Cumulative packet size per connected master and slave (bytes)
system.membus.pkt_size_system.cpu.dcache_port::total   2927579813                       # Cumulative packet size per connected master and slave (bytes)
system.membus.pkt_size::total             15106763389                       # Cumulative packet size per connected master and slave (bytes)
system.membus.snoops                                0                       # Total snoops (count)
system.membus.snoopTraffic                          0                       # Total snoop traffic (bytes)
system.membus.snoop_fanout::samples        1909582732                       # Request fanout histogram
system.membus.snoop_fanout::mean                    0                       # Request fanout histogram
system.membus.snoop_fanout::stdev                   0                       # Request fanout histogram
system.membus.snoop_fanout::underflows              0      0.00%      0.00% # Request fanout histogram
system.membus.snoop_fanout::0              1909582732    100.00%    100.00% # Request fanout histogram
system.membus.snoop_fanout::1                       0      0.00%    100.00% # Request fanout histogram
system.membus.snoop_fanout::overflows               0      0.00%    100.00% # Request fanout histogram
system.membus.snoop_fanout::min_value               0                       # Request fanout histogram
system.membus.snoop_fanout::max_value               0                       # Request fanout histogram
system.membus.snoop_fanout::total          1909582732                       # Request fanout histogram
system.membus.reqLayer2.occupancy        2065289218000                       # Layer occupancy (ticks)
system.membus.reqLayer2.utilization               2.2                       # Layer utilization (%)
system.membus.respLayer1.occupancy       3454843076000                       # Layer occupancy (ticks)
system.membus.respLayer1.utilization              3.7                       # Layer utilization (%)
system.membus.respLayer2.occupancy       685872603250                       # Layer occupancy (ticks)
system.membus.respLayer2.utilization              0.7                       # Layer utilization (%)
system.membus.power_state.pwrStateResidencyTicks::UNDEFINED 94391573519000                       # Cumulative time (in ticks) in various power states
system.voltage_domain.voltage                       1                       # Voltage in Volts
system.clk_domain.clock                          1000                       # Clock period in ticks
system.cpu_voltage_domain.voltage                   1                       # Voltage in Volts
system.mem_ctrls.bytes_read::.cpu.inst    12179183576                       # Number of bytes read from this memory
system.mem_ctrls.bytes_read::.cpu.data     1735457517                       # Number of bytes read from this memory
system.mem_ctrls.bytes_read::total        13914641093                       # Number of bytes read from this memory
system.mem_ctrls.bytes_inst_read::.cpu.inst  12179183576                       # Number of instructions bytes read from this memory
system.mem_ctrls.bytes_inst_read::total   12179183576                       # Number of instructions bytes read from this memory
system.mem_ctrls.bytes_written::.cpu.data   1192122296                       # Number of bytes written to this memory
system.mem_ctrls.bytes_written::total      1192122296                       # Number of bytes written to this memory
system.mem_ctrls.num_reads::.cpu.inst      1522397947                       # Number of read requests responded to by this memory
system.mem_ctrls.num_reads::.cpu.data       231478298                       # Number of read requests responded to by this memory
system.mem_ctrls.num_reads::total          1753876245                       # Number of read requests responded to by this memory
system.mem_ctrls.num_writes::.cpu.data      155706486                       # Number of write requests responded to by this memory
system.mem_ctrls.num_writes::total          155706486                       # Number of write requests responded to by this memory
system.mem_ctrls.bw_read::.cpu.inst         129028293                       # Total read bandwidth from this memory (bytes/s)
system.mem_ctrls.bw_read::.cpu.data          18385725                       # Total read bandwidth from this memory (bytes/s)
system.mem_ctrls.bw_read::total             147414018                       # Total read bandwidth from this memory (bytes/s)
system.mem_ctrls.bw_inst_read::.cpu.inst    129028293                       # Instruction read bandwidth from this memory (bytes/s)
system.mem_ctrls.bw_inst_read::total        129028293                       # Instruction read bandwidth from this memory (bytes/s)
system.mem_ctrls.bw_write::.cpu.data         12629542                       # Write bandwidth from this memory (bytes/s)
system.mem_ctrls.bw_write::total             12629542                       # Write bandwidth from this memory (bytes/s)
system.mem_ctrls.bw_total::.cpu.inst        129028293                       # Total bandwidth to/from this memory (bytes/s)
system.mem_ctrls.bw_total::.cpu.data         31015267                       # Total bandwidth to/from this memory (bytes/s)
system.mem_ctrls.bw_total::total            160043559                       # Total bandwidth to/from this memory (bytes/s)
system.mem_ctrls.avgPriority_.cpu.inst::samples 1522397948.00                       # Average QoS priority value for accepted requests
system.mem_ctrls.avgPriority_.cpu.data::samples 254625512.00                       # Average QoS priority value for accepted requests
system.mem_ctrls.priorityMinLatency      0.000000018750                       # per QoS priority minimum request to response latency (s)
system.mem_ctrls.priorityMaxLatency      25.527434796250                       # per QoS priority maximum request to response latency (s)
system.mem_ctrls.numReadWriteTurnArounds      2864028                       # Number of turnarounds from READ to WRITE
system.mem_ctrls.numWriteReadTurnArounds      2864028                       # Number of turnarounds from WRITE to READ
system.mem_ctrls.numStayReadState          3639445735                       # Number of times bus staying in READ state
system.mem_ctrls.numStayWriteState           42996880                       # Number of times bus staying in WRITE state
system.mem_ctrls.readReqs                  1753876246                       # Number of read requests accepted
system.mem_ctrls.writeReqs                  155706486                       # Number of write requests accepted
system.mem_ctrls.readBursts                1753876246                       # Number of DRAM read bursts, including those serviced by the write queue
system.mem_ctrls.writeBursts                155706486                       # Number of DRAM write bursts, including those merged in the write queue
system.mem_ctrls.servicedByWrQ               22677280                       # Number of DRAM read bursts serviced by the write queue
system.mem_ctrls.mergedWrBursts             109881992                       # Number of DRAM write bursts merged with an existing one
system.mem_ctrls.neitherReadNorWriteReqs            0                       # Number of requests that are neither read nor write
system.mem_ctrls.perBankRdBursts::0        1331945102                       # Per bank write bursts
system.mem_ctrls.perBankRdBursts::1         237217601                       # Per bank write bursts
system.mem_ctrls.perBankRdBursts::2           8772582                       # Per bank write bursts
system.mem_ctrls.perBankRdBursts::3           9608103                       # Per bank write bursts
system.mem_ctrls.perBankRdBursts::4           6904647                       # Per bank write bursts
system.mem_ctrls.perBankRdBursts::5          46985935                       # Per bank write bursts
system.mem_ctrls.perBankRdBursts::6           6257761                       # Per bank write bursts
system.mem_ctrls.perBankRdBursts::7           6318977                       # Per bank write bursts
system.mem_ctrls.perBankRdBursts::8           6288111                       # Per bank write bursts
system.mem_ctrls.perBankRdBursts::9           6305459                       # Per bank write bursts
system.mem_ctrls.perBankRdBursts::10          6243717                       # Per bank write bursts
system.mem_ctrls.perBankRdBursts::11          6247332                       # Per bank write bursts
system.mem_ctrls.perBankRdBursts::12          6246779                       # Per bank write bursts
system.mem_ctrls.perBankRdBursts::13          6246118                       # Per bank write bursts
system.mem_ctrls.perBankRdBursts::14         33345555                       # Per bank write bursts
system.mem_ctrls.perBankRdBursts::15          6265187                       # Per bank write bursts
system.mem_ctrls.perBankWrBursts::0           2571967                       # Per bank write bursts
system.mem_ctrls.perBankWrBursts::1           2629856                       # Per bank write bursts
system.mem_ctrls.perBankWrBursts::2           2687456                       # Per bank write bursts
system.mem_ctrls.perBankWrBursts::3           2657872                       # Per bank write bursts
system.mem_ctrls.perBankWrBursts::4           2640113                       # Per bank write bursts
system.mem_ctrls.perBankWrBursts::5           6873177                       # Per bank write bursts
system.mem_ctrls.perBankWrBursts::6           2652061                       # Per bank write bursts
system.mem_ctrls.perBankWrBursts::7           2670923                       # Per bank write bursts
system.mem_ctrls.perBankWrBursts::8           2515659                       # Per bank write bursts
system.mem_ctrls.perBankWrBursts::9           2542674                       # Per bank write bursts
system.mem_ctrls.perBankWrBursts::10          2571203                       # Per bank write bursts
system.mem_ctrls.perBankWrBursts::11          2570129                       # Per bank write bursts
system.mem_ctrls.perBankWrBursts::12          2565077                       # Per bank write bursts
system.mem_ctrls.perBankWrBursts::13          2571677                       # Per bank write bursts
system.mem_ctrls.perBankWrBursts::14          2557893                       # Per bank write bursts
system.mem_ctrls.perBankWrBursts::15          2546727                       # Per bank write bursts
system.mem_ctrls.avgRdQLen                       1.00                       # Average read queue length when enqueuing
system.mem_ctrls.avgWrQLen                      25.84                       # Average write queue length when enqueuing
system.mem_ctrls.totQLat                 5794985724000                       # Total ticks spent queuing
system.mem_ctrls.totBusLat               8655994830000                       # Total ticks spent in databus transfers
system.mem_ctrls.totMemAccLat            38254966336500                       # Total ticks spent from burst creation until serviced by the DRAM
system.mem_ctrls.avgQLat                      3347.38                       # Average queueing delay per DRAM burst
system.mem_ctrls.avgBusLat                    5000.00                       # Average bus latency per DRAM burst
system.mem_ctrls.avgMemAccLat                22097.38                       # Average memory access latency per DRAM burst
system.mem_ctrls.numRdRetry                         0                       # Number of times read queue was full causing retry
system.mem_ctrls.numWrRetry                         0                       # Number of times write queue was full causing retry
system.mem_ctrls.readRowHits               1576730100                       # Number of row buffer hits during reads
system.mem_ctrls.writeRowHits                35462204                       # Number of row buffer hits during writes
system.mem_ctrls.readRowHitRate                 91.08                       # Row buffer hit rate for reads
system.mem_ctrls.writeRowHitRate                77.39                       # Row buffer hit rate for writes
system.mem_ctrls.readPktSize::0               2640557                       # Read request sizes (log2)
system.mem_ctrls.readPktSize::1                  2926                       # Read request sizes (log2)
system.mem_ctrls.readPktSize::2              24466852                       # Read request sizes (log2)
system.mem_ctrls.readPktSize::3            1726765911                       # Read request sizes (log2)
system.mem_ctrls.readPktSize::4                     0                       # Read request sizes (log2)
system.mem_ctrls.readPktSize::5                     0                       # Read request sizes (log2)
system.mem_ctrls.readPktSize::6                     0                       # Read request sizes (log2)
system.mem_ctrls.writePktSize::0                 2428                       # Write request sizes (log2)
system.mem_ctrls.writePktSize::1                  155                       # Write request sizes (log2)
system.mem_ctrls.writePktSize::2             13377913                       # Write request sizes (log2)
system.mem_ctrls.writePktSize::3            142325990                       # Write request sizes (log2)
system.mem_ctrls.writePktSize::4                    0                       # Write request sizes (log2)
system.mem_ctrls.writePktSize::5                    0                       # Write request sizes (log2)
system.mem_ctrls.writePktSize::6                    0                       # Write request sizes (log2)
system.mem_ctrls.rdQLenPdf::0              1731198963                       # What read queue length does an incoming req see
system.mem_ctrls.rdQLenPdf::1                       3                       # What read queue length does an incoming req see
system.mem_ctrls.rdQLenPdf::2                       0                       # What read queue length does an incoming req see
system.mem_ctrls.rdQLenPdf::3                       0                       # What read queue length does an incoming req see
system.mem_ctrls.rdQLenPdf::4                       0                       # What read queue length does an incoming req see
system.mem_ctrls.rdQLenPdf::5                       0                       # What read queue length does an incoming req see
system.mem_ctrls.rdQLenPdf::6                       0                       # What read queue length does an incoming req see
system.mem_ctrls.rdQLenPdf::7                       0                       # What read queue length does an incoming req see
system.mem_ctrls.rdQLenPdf::8                       0                       # What read queue length does an incoming req see
system.mem_ctrls.rdQLenPdf::9                       0                       # What read queue length does an incoming req see
system.mem_ctrls.rdQLenPdf::10                      0                       # What read queue length does an incoming req see
system.mem_ctrls.rdQLenPdf::11                      0                       # What read queue length does an incoming req see
system.mem_ctrls.rdQLenPdf::12                      0                       # What read queue length does an incoming req see
system.mem_ctrls.rdQLenPdf::13                      0                       # What read queue length does an incoming req see
system.mem_ctrls.rdQLenPdf::14                      0                       # What read queue length does an incoming req see
system.mem_ctrls.rdQLenPdf::15                      0                       # What read queue length does an incoming req see
system.mem_ctrls.rdQLenPdf::16                      0                       # What read queue length does an incoming req see
system.mem_ctrls.rdQLenPdf::17                      0                       # What read queue length does an incoming req see
system.mem_ctrls.rdQLenPdf::18                      0                       # What read queue length does an incoming req see
system.mem_ctrls.rdQLenPdf::19                      0                       # What read queue length does an incoming req see
system.mem_ctrls.rdQLenPdf::20                      0                       # What read queue length does an incoming req see
system.mem_ctrls.rdQLenPdf::21                      0                       # What read queue length does an incoming req see
system.mem_ctrls.rdQLenPdf::22                      0                       # What read queue length does an incoming req see
system.mem_ctrls.rdQLenPdf::23                      0                       # What read queue length does an incoming req see
system.mem_ctrls.rdQLenPdf::24                      0                       # What read queue length does an incoming req see
system.mem_ctrls.rdQLenPdf::25                      0                       # What read queue length does an incoming req see
system.mem_ctrls.rdQLenPdf::26                      0                       # What read queue length does an incoming req see
system.mem_ctrls.rdQLenPdf::27                      0                       # What read queue length does an incoming req see
system.mem_ctrls.rdQLenPdf::28                      0                       # What read queue length does an incoming req see
system.mem_ctrls.rdQLenPdf::29                      0                       # What read queue length does an incoming req see
system.mem_ctrls.rdQLenPdf::30                      0                       # What read queue length does an incoming req see
system.mem_ctrls.rdQLenPdf::31                      0                       # What read queue length does an incoming req see
system.mem_ctrls.wrQLenPdf::0                       1                       # What write queue length does an incoming req see
system.mem_ctrls.wrQLenPdf::1                       1                       # What write queue length does an incoming req see
system.mem_ctrls.wrQLenPdf::2                       1                       # What write queue length does an incoming req see
system.mem_ctrls.wrQLenPdf::3                       1                       # What write queue length does an incoming req see
system.mem_ctrls.wrQLenPdf::4                       1                       # What write queue length does an incoming req see
system.mem_ctrls.wrQLenPdf::5                       1                       # What write queue length does an incoming req see
system.mem_ctrls.wrQLenPdf::6                       1                       # What write queue length does an incoming req see
system.mem_ctrls.wrQLenPdf::7                       1                       # What write queue length does an incoming req see
system.mem_ctrls.wrQLenPdf::8                       1                       # What write queue length does an incoming req see
system.mem_ctrls.wrQLenPdf::9                       1                       # What write queue length does an incoming req see
system.mem_ctrls.wrQLenPdf::10                      1                       # What write queue length does an incoming req see
system.mem_ctrls.wrQLenPdf::11                      1                       # What write queue length does an incoming req see
system.mem_ctrls.wrQLenPdf::12                      1                       # What write queue length does an incoming req see
system.mem_ctrls.wrQLenPdf::13                      1                       # What write queue length does an incoming req see
system.mem_ctrls.wrQLenPdf::14                      1                       # What write queue length does an incoming req see
system.mem_ctrls.wrQLenPdf::15                      8                       # What write queue length does an incoming req see
system.mem_ctrls.wrQLenPdf::16                      8                       # What write queue length does an incoming req see
system.mem_ctrls.wrQLenPdf::17                2864029                       # What write queue length does an incoming req see
system.mem_ctrls.wrQLenPdf::18                2864029                       # What write queue length does an incoming req see
system.mem_ctrls.wrQLenPdf::19                2864029                       # What write queue length does an incoming req see
system.mem_ctrls.wrQLenPdf::20                2864029                       # What write queue length does an incoming req see
system.mem_ctrls.wrQLenPdf::21                2864029                       # What write queue length does an incoming req see
system.mem_ctrls.wrQLenPdf::22                2864029                       # What write queue length does an incoming req see
system.mem_ctrls.wrQLenPdf::23                2864031                       # What write queue length does an incoming req see
system.mem_ctrls.wrQLenPdf::24                2864029                       # What write queue length does an incoming req see
system.mem_ctrls.wrQLenPdf::25                2864029                       # What write queue length does an incoming req see
system.mem_ctrls.wrQLenPdf::26                2864029                       # What write queue length does an incoming req see
system.mem_ctrls.wrQLenPdf::27                2864029                       # What write queue length does an incoming req see
system.mem_ctrls.wrQLenPdf::28                2864029                       # What write queue length does an incoming req see
system.mem_ctrls.wrQLenPdf::29                2864029                       # What write queue length does an incoming req see
system.mem_ctrls.wrQLenPdf::30                2864028                       # What write queue length does an incoming req see
system.mem_ctrls.wrQLenPdf::31                2864028                       # What write queue length does an incoming req see
system.mem_ctrls.wrQLenPdf::32                2864028                       # What write queue length does an incoming req see
system.mem_ctrls.wrQLenPdf::33                      0                       # What write queue length does an incoming req see
system.mem_ctrls.wrQLenPdf::34                      0                       # What write queue length does an incoming req see
system.mem_ctrls.wrQLenPdf::35                      0                       # What write queue length does an incoming req see
system.mem_ctrls.wrQLenPdf::36                      0                       # What write queue length does an incoming req see
system.mem_ctrls.wrQLenPdf::37                      0                       # What write queue length does an incoming req see
system.mem_ctrls.wrQLenPdf::38                      0                       # What write queue length does an incoming req see
system.mem_ctrls.wrQLenPdf::39                      0                       # What write queue length does an incoming req see
system.mem_ctrls.wrQLenPdf::40                      0                       # What write queue length does an incoming req see
system.mem_ctrls.wrQLenPdf::41                      0                       # What write queue length does an incoming req see
system.mem_ctrls.wrQLenPdf::42                      0                       # What write queue length does an incoming req see
system.mem_ctrls.wrQLenPdf::43                      0                       # What write queue length does an incoming req see
system.mem_ctrls.wrQLenPdf::44                      0                       # What write queue length does an incoming req see
system.mem_ctrls.wrQLenPdf::45                      0                       # What write queue length does an incoming req see
system.mem_ctrls.wrQLenPdf::46                      0                       # What write queue length does an incoming req see
system.mem_ctrls.wrQLenPdf::47                      0                       # What write queue length does an incoming req see
system.mem_ctrls.wrQLenPdf::48                      0                       # What write queue length does an incoming req see
system.mem_ctrls.wrQLenPdf::49                      0                       # What write queue length does an incoming req see
system.mem_ctrls.wrQLenPdf::50                      0                       # What write queue length does an incoming req see
system.mem_ctrls.wrQLenPdf::51                      0                       # What write queue length does an incoming req see
system.mem_ctrls.wrQLenPdf::52                      0                       # What write queue length does an incoming req see
system.mem_ctrls.wrQLenPdf::53                      0                       # What write queue length does an incoming req see
system.mem_ctrls.wrQLenPdf::54                      0                       # What write queue length does an incoming req see
system.mem_ctrls.wrQLenPdf::55                      0                       # What write queue length does an incoming req see
system.mem_ctrls.wrQLenPdf::56                      0                       # What write queue length does an incoming req see
system.mem_ctrls.wrQLenPdf::57                      0                       # What write queue length does an incoming req see
system.mem_ctrls.wrQLenPdf::58                      0                       # What write queue length does an incoming req see
system.mem_ctrls.wrQLenPdf::59                      0                       # What write queue length does an incoming req see
system.mem_ctrls.wrQLenPdf::60                      0                       # What write queue length does an incoming req see
system.mem_ctrls.wrQLenPdf::61                      0                       # What write queue length does an incoming req see
system.mem_ctrls.wrQLenPdf::62                      0                       # What write queue length does an incoming req see
system.mem_ctrls.wrQLenPdf::63                      0                       # What write queue length does an incoming req see
system.mem_ctrls.bytesPerActivate::samples    164831124                       # Bytes accessed per row activation
system.mem_ctrls.bytesPerActivate::mean    689.975874                       # Bytes accessed per row activation
system.mem_ctrls.bytesPerActivate::gmean   491.957939                       # Bytes accessed per row activation
system.mem_ctrls.bytesPerActivate::stdev   393.883498                       # Bytes accessed per row activation
system.mem_ctrls.bytesPerActivate::0-127     21076410     12.79%     12.79% # Bytes accessed per row activation
system.mem_ctrls.bytesPerActivate::128-255     15704814      9.53%     22.31% # Bytes accessed per row activation
system.mem_ctrls.bytesPerActivate::256-383     10828027      6.57%     28.88% # Bytes accessed per row activation
system.mem_ctrls.bytesPerActivate::384-511     10910741      6.62%     35.50% # Bytes accessed per row activation
system.mem_ctrls.bytesPerActivate::512-639      4990896      3.03%     38.53% # Bytes accessed per row activation
system.mem_ctrls.bytesPerActivate::640-767      6429453      3.90%     42.43% # Bytes accessed per row activation
system.mem_ctrls.bytesPerActivate::768-895      5205095      3.16%     45.59% # Bytes accessed per row activation
system.mem_ctrls.bytesPerActivate::896-1023      4432866      2.69%     48.28% # Bytes accessed per row activation
system.mem_ctrls.bytesPerActivate::1024-1151     85252822     51.72%    100.00% # Bytes accessed per row activation
system.mem_ctrls.bytesPerActivate::total    164831124                       # Bytes accessed per row activation
system.mem_ctrls.rdPerTurnAround::samples      2864028                       # Reads before turning the bus around for writes
system.mem_ctrls.rdPerTurnAround::mean     604.462895                       # Reads before turning the bus around for writes
system.mem_ctrls.rdPerTurnAround::stdev  149659.854130                       # Reads before turning the bus around for writes
system.mem_ctrls.rdPerTurnAround::0-8.38861e+06      2864025    100.00%    100.00% # Reads before turning the bus around for writes
system.mem_ctrls.rdPerTurnAround::5.87203e+07-6.71089e+07            2      0.00%    100.00% # Reads before turning the bus around for writes
system.mem_ctrls.rdPerTurnAround::2.34881e+08-2.4327e+08            1      0.00%    100.00% # Reads before turning the bus around for writes
system.mem_ctrls.rdPerTurnAround::total       2864028                       # Reads before turning the bus around for writes
system.mem_ctrls.wrPerTurnAround::samples      2864028                       # Writes before turning the bus around for reads
system.mem_ctrls.wrPerTurnAround::mean      16.000006                       # Writes before turning the bus around for reads
system.mem_ctrls.wrPerTurnAround::gmean     16.000005                       # Writes before turning the bus around for reads
system.mem_ctrls.wrPerTurnAround::stdev      0.003643                       # Writes before turning the bus around for reads
system.mem_ctrls.wrPerTurnAround::16          2864021    100.00%    100.00% # Writes before turning the bus around for reads
system.mem_ctrls.wrPerTurnAround::18                5      0.00%    100.00% # Writes before turning the bus around for reads
system.mem_ctrls.wrPerTurnAround::19                2      0.00%    100.00% # Writes before turning the bus around for reads
system.mem_ctrls.wrPerTurnAround::total       2864028                       # Writes before turning the bus around for reads
system.mem_ctrls.bytesReadDRAM           110796733824                       # Total number of bytes read from DRAM
system.mem_ctrls.bytesReadWrQ              1451345920                       # Total number of bytes read from write queue
system.mem_ctrls.bytesWritten              2932765696                       # Total number of bytes written to DRAM
system.mem_ctrls.bytesReadSys             13914641101                       # Total read bytes from the system interface side
system.mem_ctrls.bytesWrittenSys           1192122296                       # Total written bytes from the system interface side
system.mem_ctrls.avgRdBW                      1173.80                       # Average DRAM read bandwidth in MiByte/s
system.mem_ctrls.avgWrBW                        31.07                       # Average achieved write bandwidth in MiByte/s
system.mem_ctrls.avgRdBWSys                    147.41                       # Average system read bandwidth in MiByte/s
system.mem_ctrls.avgWrBWSys                     12.63                       # Average system write bandwidth in MiByte/s
system.mem_ctrls.peakBW                      12800.00                       # Theoretical peak bandwidth in MiByte/s
system.mem_ctrls.busUtil                         9.41                       # Data bus utilization in percentage
system.mem_ctrls.busUtilRead                     9.17                       # Data bus utilization in percentage for reads
system.mem_ctrls.busUtilWrite                    0.24                       # Data bus utilization in percentage for writes
system.mem_ctrls.totGap                  94391573442000                       # Total gap between requests
system.mem_ctrls.avgGap                      49430.47                       # Average gap between requests
system.mem_ctrls.masterReadBytes::.cpu.inst  12179183584                       # Per-master bytes read from memory
system.mem_ctrls.masterReadBytes::.cpu.data   1575868010                       # Per-master bytes read from memory
system.mem_ctrls.masterWriteBytes::.cpu.data    355100945                       # Per-master bytes write to memory
system.mem_ctrls.masterReadRate::.cpu.inst 129028292.780270919204                       # Per-master bytes read from memory rate (Bytes/sec)
system.mem_ctrls.masterReadRate::.cpu.data 16695007.311037089676                       # Per-master bytes read from memory rate (Bytes/sec)
system.mem_ctrls.masterWriteRate::.cpu.data 3761998.362369942013                       # Per-master bytes write to memory rate (Bytes/sec)
system.mem_ctrls.masterReadAccesses::.cpu.inst   1522397948                       # Per-master read serviced memory accesses
system.mem_ctrls.masterReadAccesses::.cpu.data    231478298                       # Per-master read serviced memory accesses
system.mem_ctrls.masterWriteAccesses::.cpu.data    155706486                       # Per-master write serviced memory accesses
system.mem_ctrls.masterReadTotalLat::.cpu.inst 33166353876750                       # Per-master read total memory access latency
system.mem_ctrls.masterReadTotalLat::.cpu.data 5088612459750                       # Per-master read total memory access latency
system.mem_ctrls.masterWriteTotalLat::.cpu.data 2374102185838750                       # Per-master write total memory access latency
system.mem_ctrls.masterReadAvgLat::.cpu.inst     21785.60                       # Per-master read average memory access latency
system.mem_ctrls.masterReadAvgLat::.cpu.data     21983.11                       # Per-master read average memory access latency
system.mem_ctrls.masterWriteAvgLat::.cpu.data  15247291.53                       # Per-master write average memory access latency
system.mem_ctrls.pageHitRate                    90.72                       # Row buffer hit rate, read and write combined
system.mem_ctrls.rank1.actEnergy          88555049520                       # Energy for activate commands per rank (pJ)
system.mem_ctrls.rank1.preEnergy          47068125060                       # Energy for precharge commands per rank (pJ)
system.mem_ctrls.rank1.readEnergy        551124162120                       # Energy for read commands per rank (pJ)
system.mem_ctrls.rank1.writeEnergy       106702223580                       # Energy for write commands per rank (pJ)
system.mem_ctrls.rank1.refreshEnergy     7451190982560.000977                       # Energy for refresh commands per rank (pJ)
system.mem_ctrls.rank1.actBackEnergy     16882582091040                       # Energy for active background per rank (pJ)
system.mem_ctrls.rank1.preBackEnergy     22029452997120                       # Energy for precharge background per rank (pJ)
system.mem_ctrls.rank1.actPowerDownEnergy            0                       # Energy for active power-down per rank (pJ)
system.mem_ctrls.rank1.prePowerDownEnergy            0                       # Energy for precharge power-down per rank (pJ)
system.mem_ctrls.rank1.selfRefreshEnergy            0                       # Energy for self refresh per rank (pJ)
system.mem_ctrls.rank1.totalEnergy       47156675631000                       # Total energy per rank (pJ)
system.mem_ctrls.rank1.averagePower        499.585650                       # Core power per rank (mW)
system.mem_ctrls.rank1.totalIdleTime                0                       # Total Idle time Per DRAM Rank
system.mem_ctrls.rank1.memoryStateTime::IDLE 57081799132250                       # Time in different power states
system.mem_ctrls.rank1.memoryStateTime::REF 3151942040000                       # Time in different power states
system.mem_ctrls.rank1.memoryStateTime::SREF            0                       # Time in different power states
system.mem_ctrls.rank1.memoryStateTime::PRE_PDN            0                       # Time in different power states
system.mem_ctrls.rank1.memoryStateTime::ACT 34157832346750                       # Time in different power states
system.mem_ctrls.rank1.memoryStateTime::ACT_PDN            0                       # Time in different power states
system.mem_ctrls.rank0.actEnergy         1088339190120                       # Energy for activate commands per rank (pJ)
system.mem_ctrls.rank0.preEnergy         578465990520                       # Energy for precharge commands per rank (pJ)
system.mem_ctrls.rank0.readEnergy        11809636455120                       # Energy for read commands per rank (pJ)
system.mem_ctrls.rank0.writeEnergy       132501478500                       # Energy for write commands per rank (pJ)
system.mem_ctrls.rank0.refreshEnergy     7451190982560.000977                       # Energy for refresh commands per rank (pJ)
system.mem_ctrls.rank0.actBackEnergy     42574218446700                       # Energy for active background per rank (pJ)
system.mem_ctrls.rank0.preBackEnergy     394390802880                       # Energy for precharge background per rank (pJ)
system.mem_ctrls.rank0.actPowerDownEnergy            0                       # Energy for active power-down per rank (pJ)
system.mem_ctrls.rank0.prePowerDownEnergy            0                       # Energy for precharge power-down per rank (pJ)
system.mem_ctrls.rank0.selfRefreshEnergy            0                       # Energy for self refresh per rank (pJ)
system.mem_ctrls.rank0.totalEnergy       64028743346400                       # Total energy per rank (pJ)
system.mem_ctrls.rank0.averagePower        678.331137                       # Core power per rank (mW)
system.mem_ctrls.rank0.totalIdleTime                0                       # Total Idle time Per DRAM Rank
system.mem_ctrls.rank0.memoryStateTime::IDLE 443259144750                       # Time in different power states
system.mem_ctrls.rank0.memoryStateTime::REF 3151942040000                       # Time in different power states
system.mem_ctrls.rank0.memoryStateTime::SREF            0                       # Time in different power states
system.mem_ctrls.rank0.memoryStateTime::PRE_PDN            0                       # Time in different power states
system.mem_ctrls.rank0.memoryStateTime::ACT 90796372334250                       # Time in different power states
system.mem_ctrls.rank0.memoryStateTime::ACT_PDN            0                       # Time in different power states
system.mem_ctrls.power_state.pwrStateResidencyTicks::UNDEFINED 94391573519000                       # Cumulative time (in ticks) in various power states
system.cpu_clk_domain.clock                       500                       # Clock period in ticks
system.cpu.dtb.walker.power_state.pwrStateResidencyTicks::UNDEFINED 94391573519000                       # Cumulative time (in ticks) in various power states
system.cpu.interrupts.clk_domain.clock           8000                       # Clock period in ticks
system.cpu.itb.walker.power_state.pwrStateResidencyTicks::UNDEFINED 94391573519000                       # Cumulative time (in ticks) in various power states
system.cpu.power_state.numTransitions               1                       # Number of power state transitions
system.cpu.power_state.pwrStateResidencyTicks::ON 94391573519000                       # Cumulative time (in ticks) in various power states

---------- End Simulation Statistics   ----------
