
---------- Begin Simulation Statistics ----------
final_tick                               447503619500                       # Number of ticks from beginning of simulation (restored from checkpoints and never reset)
host_inst_rate                                 160173                       # Simulator instruction rate (inst/s)
host_mem_usage                                 858316                       # Number of bytes of host memory used
host_op_rate                                   163556                       # Simulator op (including micro ops) rate (op/s)
host_seconds                                  6555.43                       # Real time elapsed on the host
host_tick_rate                               68264562                       # Simulator tick rate (ticks/s)
sim_freq                                 1000000000000                       # Frequency of simulated ticks
sim_insts                                  1050000006                       # Number of instructions simulated
sim_ops                                    1072180335                       # Number of ops (including micro ops) simulated
sim_seconds                                  0.447504                       # Number of seconds simulated
sim_ticks                                447503619500                       # Number of ticks simulated
system.cpu.branchPred.BTBCorrect                    0                       # Number of correct BTB predictions (this stat may not work properly.
system.cpu.branchPred.BTBHitPct              0.000000                       # BTB Hit Percentage
system.cpu.branchPred.BTBHits                       0                       # Number of BTB hits
system.cpu.branchPred.BTBLookups                    2                       # Number of BTB lookups
system.cpu.branchPred.RASInCorrect                  0                       # Number of incorrect RAS predictions.
system.cpu.branchPred.condIncorrect                 1                       # Number of conditional branches incorrect
system.cpu.branchPred.condPredicted                 1                       # Number of conditional branches predicted
system.cpu.branchPred.indirectHits                  0                       # Number of indirect target hits.
system.cpu.branchPred.indirectLookups               0                       # Number of indirect predictor lookups.
system.cpu.branchPred.indirectMisses                0                       # Number of indirect misses.
system.cpu.branchPred.lookups                       4                       # Number of BP lookups
system.cpu.branchPred.usedRAS                       1                       # Number of times the RAS was used to get a target.
system.cpu.branchPredindirectMispredicted            0                       # Number of mispredicted indirect branches.
system.cpu.cc_regfile_reads                         6                       # number of cc regfile reads
system.cpu.commit.amos                              0                       # Number of atomic instructions committed
system.cpu.commit.branches                          0                       # Number of branches committed
system.cpu.commit.bw_lim_events                     0                       # number cycles where commit BW limit reached
system.cpu.commit.commitSquashedInsts              15                       # The number of squashed insts skipped by commit
system.cpu.commit.committedInsts                    4                       # Number of instructions committed
system.cpu.commit.committedOps                      4                       # Number of ops (including micro ops) committed
system.cpu.commit.committed_per_cycle::samples           55                       # Number of insts commited each cycle
system.cpu.commit.committed_per_cycle::mean     0.072727                       # Number of insts commited each cycle
system.cpu.commit.committed_per_cycle::stdev     0.424026                       # Number of insts commited each cycle
system.cpu.commit.committed_per_cycle::underflows            0      0.00%      0.00% # Number of insts commited each cycle
system.cpu.commit.committed_per_cycle::0           53     96.36%     96.36% # Number of insts commited each cycle
system.cpu.commit.committed_per_cycle::1            1      1.82%     98.18% # Number of insts commited each cycle
system.cpu.commit.committed_per_cycle::2            0      0.00%     98.18% # Number of insts commited each cycle
system.cpu.commit.committed_per_cycle::3            1      1.82%    100.00% # Number of insts commited each cycle
system.cpu.commit.committed_per_cycle::4            0      0.00%    100.00% # Number of insts commited each cycle
system.cpu.commit.committed_per_cycle::5            0      0.00%    100.00% # Number of insts commited each cycle
system.cpu.commit.committed_per_cycle::6            0      0.00%    100.00% # Number of insts commited each cycle
system.cpu.commit.committed_per_cycle::7            0      0.00%    100.00% # Number of insts commited each cycle
system.cpu.commit.committed_per_cycle::8            0      0.00%    100.00% # Number of insts commited each cycle
system.cpu.commit.committed_per_cycle::overflows            0      0.00%    100.00% # Number of insts commited each cycle
system.cpu.commit.committed_per_cycle::min_value            0                       # Number of insts commited each cycle
system.cpu.commit.committed_per_cycle::max_value            3                       # Number of insts commited each cycle
system.cpu.commit.committed_per_cycle::total           55                       # Number of insts commited each cycle
system.cpu.commit.fp_insts                          0                       # Number of committed floating point instructions.
system.cpu.commit.function_calls                    0                       # Number of function calls committed.
system.cpu.commit.int_insts                         4                       # Number of committed integer instructions.
system.cpu.commit.loads                             1                       # Number of loads committed
system.cpu.commit.membars                           0                       # Number of memory barriers committed
system.cpu.commit.op_class_0::No_OpClass            0      0.00%      0.00% # Class of committed instruction
system.cpu.commit.op_class_0::IntAlu                3     75.00%     75.00% # Class of committed instruction
system.cpu.commit.op_class_0::IntMult               0      0.00%     75.00% # Class of committed instruction
system.cpu.commit.op_class_0::IntDiv                0      0.00%     75.00% # Class of committed instruction
system.cpu.commit.op_class_0::FloatAdd              0      0.00%     75.00% # Class of committed instruction
system.cpu.commit.op_class_0::FloatCmp              0      0.00%     75.00% # Class of committed instruction
system.cpu.commit.op_class_0::FloatCvt              0      0.00%     75.00% # Class of committed instruction
system.cpu.commit.op_class_0::FloatMult             0      0.00%     75.00% # Class of committed instruction
system.cpu.commit.op_class_0::FloatMultAcc            0      0.00%     75.00% # Class of committed instruction
system.cpu.commit.op_class_0::FloatDiv              0      0.00%     75.00% # Class of committed instruction
system.cpu.commit.op_class_0::FloatMisc             0      0.00%     75.00% # Class of committed instruction
system.cpu.commit.op_class_0::FloatSqrt             0      0.00%     75.00% # Class of committed instruction
system.cpu.commit.op_class_0::SimdAdd               0      0.00%     75.00% # Class of committed instruction
system.cpu.commit.op_class_0::SimdAddAcc            0      0.00%     75.00% # Class of committed instruction
system.cpu.commit.op_class_0::SimdAlu               0      0.00%     75.00% # Class of committed instruction
system.cpu.commit.op_class_0::SimdCmp               0      0.00%     75.00% # Class of committed instruction
system.cpu.commit.op_class_0::SimdCvt               0      0.00%     75.00% # Class of committed instruction
system.cpu.commit.op_class_0::SimdMisc              0      0.00%     75.00% # Class of committed instruction
system.cpu.commit.op_class_0::SimdMult              0      0.00%     75.00% # Class of committed instruction
system.cpu.commit.op_class_0::SimdMultAcc            0      0.00%     75.00% # Class of committed instruction
system.cpu.commit.op_class_0::SimdShift             0      0.00%     75.00% # Class of committed instruction
system.cpu.commit.op_class_0::SimdShiftAcc            0      0.00%     75.00% # Class of committed instruction
system.cpu.commit.op_class_0::SimdDiv               0      0.00%     75.00% # Class of committed instruction
system.cpu.commit.op_class_0::SimdSqrt              0      0.00%     75.00% # Class of committed instruction
system.cpu.commit.op_class_0::SimdFloatAdd            0      0.00%     75.00% # Class of committed instruction
system.cpu.commit.op_class_0::SimdFloatAlu            0      0.00%     75.00% # Class of committed instruction
system.cpu.commit.op_class_0::SimdFloatCmp            0      0.00%     75.00% # Class of committed instruction
system.cpu.commit.op_class_0::SimdFloatCvt            0      0.00%     75.00% # Class of committed instruction
system.cpu.commit.op_class_0::SimdFloatDiv            0      0.00%     75.00% # Class of committed instruction
system.cpu.commit.op_class_0::SimdFloatMisc            0      0.00%     75.00% # Class of committed instruction
system.cpu.commit.op_class_0::SimdFloatMult            0      0.00%     75.00% # Class of committed instruction
system.cpu.commit.op_class_0::SimdFloatMultAcc            0      0.00%     75.00% # Class of committed instruction
system.cpu.commit.op_class_0::SimdFloatSqrt            0      0.00%     75.00% # Class of committed instruction
system.cpu.commit.op_class_0::SimdReduceAdd            0      0.00%     75.00% # Class of committed instruction
system.cpu.commit.op_class_0::SimdReduceAlu            0      0.00%     75.00% # Class of committed instruction
system.cpu.commit.op_class_0::SimdReduceCmp            0      0.00%     75.00% # Class of committed instruction
system.cpu.commit.op_class_0::SimdFloatReduceAdd            0      0.00%     75.00% # Class of committed instruction
system.cpu.commit.op_class_0::SimdFloatReduceCmp            0      0.00%     75.00% # Class of committed instruction
system.cpu.commit.op_class_0::SimdAes               0      0.00%     75.00% # Class of committed instruction
system.cpu.commit.op_class_0::SimdAesMix            0      0.00%     75.00% # Class of committed instruction
system.cpu.commit.op_class_0::SimdSha1Hash            0      0.00%     75.00% # Class of committed instruction
system.cpu.commit.op_class_0::SimdSha1Hash2            0      0.00%     75.00% # Class of committed instruction
system.cpu.commit.op_class_0::SimdSha256Hash            0      0.00%     75.00% # Class of committed instruction
system.cpu.commit.op_class_0::SimdSha256Hash2            0      0.00%     75.00% # Class of committed instruction
system.cpu.commit.op_class_0::SimdShaSigma2            0      0.00%     75.00% # Class of committed instruction
system.cpu.commit.op_class_0::SimdShaSigma3            0      0.00%     75.00% # Class of committed instruction
system.cpu.commit.op_class_0::SimdPredAlu            0      0.00%     75.00% # Class of committed instruction
system.cpu.commit.op_class_0::MemRead               1     25.00%    100.00% # Class of committed instruction
system.cpu.commit.op_class_0::MemWrite              0      0.00%    100.00% # Class of committed instruction
system.cpu.commit.op_class_0::FloatMemRead            0      0.00%    100.00% # Class of committed instruction
system.cpu.commit.op_class_0::FloatMemWrite            0      0.00%    100.00% # Class of committed instruction
system.cpu.commit.op_class_0::IprAccess             0      0.00%    100.00% # Class of committed instruction
system.cpu.commit.op_class_0::InstPrefetch            0      0.00%    100.00% # Class of committed instruction
system.cpu.commit.op_class_0::total                 4                       # Class of committed instruction
system.cpu.commit.refs                              1                       # Number of memory references committed
system.cpu.commit.swp_count                         0                       # Number of s/w prefetches committed
system.cpu.commit.vec_insts                         0                       # Number of committed Vector instructions.
system.cpu.committedInsts                           4                       # Number of Instructions Simulated
system.cpu.committedOps                             4                       # Number of Ops (including micro ops) Simulated
system.cpu.cpi                              91.000000                       # CPI: Cycles Per Instruction
system.cpu.cpi_total                        91.000000                       # CPI: Total CPI of All Threads
system.cpu.decode.BlockedCycles                     1                       # Number of cycles decode is blocked
system.cpu.decode.BranchMispred                     1                       # Number of times decode detected a branch misprediction
system.cpu.decode.BranchResolved                    1                       # Number of times decode resolved a branch
system.cpu.decode.DecodedInsts                     19                       # Number of instructions handled by decode
system.cpu.decode.IdleCycles                       51                       # Number of cycles decode is idle
system.cpu.decode.RunCycles                         4                       # Number of cycles decode is running
system.cpu.decode.SquashCycles                      2                       # Number of cycles decode is squashing
system.cpu.decode.SquashedInsts                     1                       # Number of squashed instructions handled by decode
system.cpu.dtb.accesses                             0                       # DTB accesses
system.cpu.dtb.align_faults                         0                       # Number of TLB faults due to alignment restrictions
system.cpu.dtb.domain_faults                        0                       # Number of TLB faults due to domain restrictions
system.cpu.dtb.flush_entries                        0                       # Number of entries that have been flushed from TLB
system.cpu.dtb.flush_tlb                            2                       # Number of times complete TLB was flushed
system.cpu.dtb.flush_tlb_asid                       0                       # Number of times TLB was flushed by ASID
system.cpu.dtb.flush_tlb_mva                        0                       # Number of times TLB was flushed by MVA
system.cpu.dtb.flush_tlb_mva_asid                   0                       # Number of times TLB was flushed by MVA & ASID
system.cpu.dtb.hits                                 0                       # DTB hits
system.cpu.dtb.inst_accesses                        0                       # ITB inst accesses
system.cpu.dtb.inst_hits                            0                       # ITB inst hits
system.cpu.dtb.inst_misses                          0                       # ITB inst misses
system.cpu.dtb.misses                               0                       # DTB misses
system.cpu.dtb.perms_faults                         0                       # Number of TLB faults due to permissions restrictions
system.cpu.dtb.prefetch_faults                      0                       # Number of TLB faults due to prefetch
system.cpu.dtb.read_accesses                        0                       # DTB read accesses
system.cpu.dtb.read_hits                            0                       # DTB read hits
system.cpu.dtb.read_misses                          0                       # DTB read misses
system.cpu.dtb.stage2_mmu.stage2_tlb.accesses            0                       # DTB accesses
system.cpu.dtb.stage2_mmu.stage2_tlb.align_faults            0                       # Number of TLB faults due to alignment restrictions
system.cpu.dtb.stage2_mmu.stage2_tlb.domain_faults            0                       # Number of TLB faults due to domain restrictions
system.cpu.dtb.stage2_mmu.stage2_tlb.flush_entries            0                       # Number of entries that have been flushed from TLB
system.cpu.dtb.stage2_mmu.stage2_tlb.flush_tlb            0                       # Number of times complete TLB was flushed
system.cpu.dtb.stage2_mmu.stage2_tlb.flush_tlb_asid            0                       # Number of times TLB was flushed by ASID
system.cpu.dtb.stage2_mmu.stage2_tlb.flush_tlb_mva            0                       # Number of times TLB was flushed by MVA
system.cpu.dtb.stage2_mmu.stage2_tlb.flush_tlb_mva_asid            0                       # Number of times TLB was flushed by MVA & ASID
system.cpu.dtb.stage2_mmu.stage2_tlb.hits            0                       # DTB hits
system.cpu.dtb.stage2_mmu.stage2_tlb.inst_accesses            0                       # ITB inst accesses
system.cpu.dtb.stage2_mmu.stage2_tlb.inst_hits            0                       # ITB inst hits
system.cpu.dtb.stage2_mmu.stage2_tlb.inst_misses            0                       # ITB inst misses
system.cpu.dtb.stage2_mmu.stage2_tlb.misses            0                       # DTB misses
system.cpu.dtb.stage2_mmu.stage2_tlb.perms_faults            0                       # Number of TLB faults due to permissions restrictions
system.cpu.dtb.stage2_mmu.stage2_tlb.prefetch_faults            0                       # Number of TLB faults due to prefetch
system.cpu.dtb.stage2_mmu.stage2_tlb.read_accesses            0                       # DTB read accesses
system.cpu.dtb.stage2_mmu.stage2_tlb.read_hits            0                       # DTB read hits
system.cpu.dtb.stage2_mmu.stage2_tlb.read_misses            0                       # DTB read misses
system.cpu.dtb.stage2_mmu.stage2_tlb.walker.walkRequestOrigin_Requested::Data            0                       # Table walker requests started/completed, data/inst
system.cpu.dtb.stage2_mmu.stage2_tlb.walker.walkRequestOrigin_Requested::Inst            0                       # Table walker requests started/completed, data/inst
system.cpu.dtb.stage2_mmu.stage2_tlb.walker.walkRequestOrigin_Requested::total            0                       # Table walker requests started/completed, data/inst
system.cpu.dtb.stage2_mmu.stage2_tlb.walker.walkRequestOrigin_Completed::Data            0                       # Table walker requests started/completed, data/inst
system.cpu.dtb.stage2_mmu.stage2_tlb.walker.walkRequestOrigin_Completed::Inst            0                       # Table walker requests started/completed, data/inst
system.cpu.dtb.stage2_mmu.stage2_tlb.walker.walkRequestOrigin_Completed::total            0                       # Table walker requests started/completed, data/inst
system.cpu.dtb.stage2_mmu.stage2_tlb.walker.walkRequestOrigin::total            0                       # Table walker requests started/completed, data/inst
system.cpu.dtb.stage2_mmu.stage2_tlb.walker.walks            0                       # Table walker walks requested
system.cpu.dtb.stage2_mmu.stage2_tlb.write_accesses            0                       # DTB write accesses
system.cpu.dtb.stage2_mmu.stage2_tlb.write_hits            0                       # DTB write hits
system.cpu.dtb.stage2_mmu.stage2_tlb.write_misses            0                       # DTB write misses
system.cpu.dtb.walker.walkRequestOrigin_Requested::Data            0                       # Table walker requests started/completed, data/inst
system.cpu.dtb.walker.walkRequestOrigin_Requested::Inst            0                       # Table walker requests started/completed, data/inst
system.cpu.dtb.walker.walkRequestOrigin_Requested::total            0                       # Table walker requests started/completed, data/inst
system.cpu.dtb.walker.walkRequestOrigin_Completed::Data            0                       # Table walker requests started/completed, data/inst
system.cpu.dtb.walker.walkRequestOrigin_Completed::Inst            0                       # Table walker requests started/completed, data/inst
system.cpu.dtb.walker.walkRequestOrigin_Completed::total            0                       # Table walker requests started/completed, data/inst
system.cpu.dtb.walker.walkRequestOrigin::total            0                       # Table walker requests started/completed, data/inst
system.cpu.dtb.walker.walks                         0                       # Table walker walks requested
system.cpu.dtb.write_accesses                       0                       # DTB write accesses
system.cpu.dtb.write_hits                           0                       # DTB write hits
system.cpu.dtb.write_misses                         0                       # DTB write misses
system.cpu.fetch.Branches                           4                       # Number of branches that fetch encountered
system.cpu.fetch.CacheLines                         4                       # Number of cache lines fetched
system.cpu.fetch.Cycles                             4                       # Number of cycles fetch has run and was not squashing or blocked
system.cpu.fetch.IcacheSquashes                     2                       # Number of outstanding Icache misses that were squashed
system.cpu.fetch.Insts                             25                       # Number of instructions fetch has processed
system.cpu.fetch.PendingDrainCycles                 6                       # Number of cycles fetch has spent waiting on pipes to drain
system.cpu.fetch.SquashCycles                       5                       # Number of cycles fetch has spent squashing
system.cpu.fetch.branchRate                  0.010989                       # Number of branch fetches per cycle
system.cpu.fetch.icacheStallCycles                 46                       # Number of cycles fetch is stalled on an Icache miss
system.cpu.fetch.predictedBranches                  1                       # Number of branches that fetch has predicted taken
system.cpu.fetch.rate                        0.068681                       # Number of inst fetches per cycle
system.cpu.fetch.rateDist::samples                 58                       # Number of instructions fetched each cycle (Total)
system.cpu.fetch.rateDist::mean              0.431034                       # Number of instructions fetched each cycle (Total)
system.cpu.fetch.rateDist::stdev             1.787992                       # Number of instructions fetched each cycle (Total)
system.cpu.fetch.rateDist::underflows               0      0.00%      0.00% # Number of instructions fetched each cycle (Total)
system.cpu.fetch.rateDist::0                       54     93.10%     93.10% # Number of instructions fetched each cycle (Total)
system.cpu.fetch.rateDist::1                        1      1.72%     94.83% # Number of instructions fetched each cycle (Total)
system.cpu.fetch.rateDist::2                        0      0.00%     94.83% # Number of instructions fetched each cycle (Total)
system.cpu.fetch.rateDist::3                        0      0.00%     94.83% # Number of instructions fetched each cycle (Total)
system.cpu.fetch.rateDist::4                        0      0.00%     94.83% # Number of instructions fetched each cycle (Total)
system.cpu.fetch.rateDist::5                        0      0.00%     94.83% # Number of instructions fetched each cycle (Total)
system.cpu.fetch.rateDist::6                        0      0.00%     94.83% # Number of instructions fetched each cycle (Total)
system.cpu.fetch.rateDist::7                        0      0.00%     94.83% # Number of instructions fetched each cycle (Total)
system.cpu.fetch.rateDist::8                        3      5.17%    100.00% # Number of instructions fetched each cycle (Total)
system.cpu.fetch.rateDist::overflows                0      0.00%    100.00% # Number of instructions fetched each cycle (Total)
system.cpu.fetch.rateDist::min_value                0                       # Number of instructions fetched each cycle (Total)
system.cpu.fetch.rateDist::max_value                8                       # Number of instructions fetched each cycle (Total)
system.cpu.fetch.rateDist::total                   58                       # Number of instructions fetched each cycle (Total)
system.cpu.idleCycles                             306                       # Total number of cycles that the CPU has spent unscheduled due to idling
system.cpu.iew.branchMispredicts                    0                       # Number of branch mispredicts detected at execute
system.cpu.iew.exec_branches                        1                       # Number of branches executed
system.cpu.iew.exec_nop                             0                       # number of nop insts executed
system.cpu.iew.exec_rate                     0.052198                       # Inst execution rate
system.cpu.iew.exec_refs                            1                       # number of memory reference insts executed
system.cpu.iew.exec_stores                          0                       # Number of stores executed
system.cpu.iew.exec_swp                             0                       # number of swp insts executed
system.cpu.iew.iewBlockCycles                       1                       # Number of cycles IEW is blocking
system.cpu.iew.iewDispLoadInsts                     1                       # Number of dispatched load instructions
system.cpu.iew.iewDispNonSpecInsts                  0                       # Number of dispatched non-speculative instructions
system.cpu.iew.iewDispSquashedInsts                 0                       # Number of squashed instructions skipped by dispatch
system.cpu.iew.iewDispStoreInsts                    0                       # Number of dispatched store instructions
system.cpu.iew.iewDispatchedInsts                  19                       # Number of instructions dispatched to IQ
system.cpu.iew.iewExecLoadInsts                     1                       # Number of load instructions executed
system.cpu.iew.iewExecSquashedInsts                 0                       # Number of squashed instructions skipped in execute
system.cpu.iew.iewExecutedInsts                    19                       # Number of executed instructions
system.cpu.iew.iewIQFullEvents                      0                       # Number of times the IQ has become full, causing a stall
system.cpu.iew.iewIdleCycles                        0                       # Number of cycles IEW is idle
system.cpu.iew.iewLSQFullEvents                     0                       # Number of times the LSQ has become full, causing a stall
system.cpu.iew.iewSquashCycles                      2                       # Number of cycles IEW is squashing
system.cpu.iew.iewUnblockCycles                     0                       # Number of cycles IEW is unblocking
system.cpu.iew.lsq.thread0.blockedLoads             0                       # Number of blocked loads due to partial load-store forwarding
system.cpu.iew.lsq.thread0.cacheBlocked             0                       # Number of times an access to memory failed due to the cache being blocked
system.cpu.iew.lsq.thread0.forwLoads                0                       # Number of loads that had data forwarded from stores
system.cpu.iew.lsq.thread0.ignoredResponses            0                       # Number of memory responses ignored because the instruction is squashed
system.cpu.iew.lsq.thread0.invAddrLoads             0                       # Number of loads ignored due to an invalid address
system.cpu.iew.lsq.thread0.invAddrSwpfs             0                       # Number of software prefetches ignored due to an invalid address
system.cpu.iew.lsq.thread0.memOrderViolation            0                       # Number of memory ordering violations
system.cpu.iew.lsq.thread0.rescheduledLoads            0                       # Number of loads that were rescheduled
system.cpu.iew.lsq.thread0.squashedLoads            0                       # Number of loads squashed
system.cpu.iew.lsq.thread0.squashedStores            0                       # Number of stores squashed
system.cpu.iew.memOrderViolationEvents              0                       # Number of memory order violations
system.cpu.iew.predictedNotTakenIncorrect            0                       # Number of branches that were predicted not taken incorrectly
system.cpu.iew.predictedTakenIncorrect              0                       # Number of branches that were predicted taken incorrectly
system.cpu.iew.wb_consumers                         8                       # num instructions consuming a value
system.cpu.iew.wb_count                            19                       # cumulative count of insts written-back
system.cpu.iew.wb_fanout                            1                       # average fanout of values written-back
system.cpu.iew.wb_producers                         8                       # num instructions producing a value
system.cpu.iew.wb_rate                       0.052198                       # insts written-back per cycle
system.cpu.iew.wb_sent                             19                       # cumulative count of insts sent to commit
system.cpu.int_regfile_reads                       57                       # number of integer regfile reads
system.cpu.int_regfile_writes                      19                       # number of integer regfile writes
system.cpu.ipc                               0.010989                       # IPC: Instructions Per Cycle
system.cpu.ipc_total                         0.010989                       # IPC: Total IPC of All Threads
system.cpu.iq.FU_type_0::No_OpClass                 0      0.00%      0.00% # Type of FU issued
system.cpu.iq.FU_type_0::IntAlu                    18     94.74%     94.74% # Type of FU issued
system.cpu.iq.FU_type_0::IntMult                    0      0.00%     94.74% # Type of FU issued
system.cpu.iq.FU_type_0::IntDiv                     0      0.00%     94.74% # Type of FU issued
system.cpu.iq.FU_type_0::FloatAdd                   0      0.00%     94.74% # Type of FU issued
system.cpu.iq.FU_type_0::FloatCmp                   0      0.00%     94.74% # Type of FU issued
system.cpu.iq.FU_type_0::FloatCvt                   0      0.00%     94.74% # Type of FU issued
system.cpu.iq.FU_type_0::FloatMult                  0      0.00%     94.74% # Type of FU issued
system.cpu.iq.FU_type_0::FloatMultAcc               0      0.00%     94.74% # Type of FU issued
system.cpu.iq.FU_type_0::FloatDiv                   0      0.00%     94.74% # Type of FU issued
system.cpu.iq.FU_type_0::FloatMisc                  0      0.00%     94.74% # Type of FU issued
system.cpu.iq.FU_type_0::FloatSqrt                  0      0.00%     94.74% # Type of FU issued
system.cpu.iq.FU_type_0::SimdAdd                    0      0.00%     94.74% # Type of FU issued
system.cpu.iq.FU_type_0::SimdAddAcc                 0      0.00%     94.74% # Type of FU issued
system.cpu.iq.FU_type_0::SimdAlu                    0      0.00%     94.74% # Type of FU issued
system.cpu.iq.FU_type_0::SimdCmp                    0      0.00%     94.74% # Type of FU issued
system.cpu.iq.FU_type_0::SimdCvt                    0      0.00%     94.74% # Type of FU issued
system.cpu.iq.FU_type_0::SimdMisc                   0      0.00%     94.74% # Type of FU issued
system.cpu.iq.FU_type_0::SimdMult                   0      0.00%     94.74% # Type of FU issued
system.cpu.iq.FU_type_0::SimdMultAcc                0      0.00%     94.74% # Type of FU issued
system.cpu.iq.FU_type_0::SimdShift                  0      0.00%     94.74% # Type of FU issued
system.cpu.iq.FU_type_0::SimdShiftAcc               0      0.00%     94.74% # Type of FU issued
system.cpu.iq.FU_type_0::SimdDiv                    0      0.00%     94.74% # Type of FU issued
system.cpu.iq.FU_type_0::SimdSqrt                   0      0.00%     94.74% # Type of FU issued
system.cpu.iq.FU_type_0::SimdFloatAdd               0      0.00%     94.74% # Type of FU issued
system.cpu.iq.FU_type_0::SimdFloatAlu               0      0.00%     94.74% # Type of FU issued
system.cpu.iq.FU_type_0::SimdFloatCmp               0      0.00%     94.74% # Type of FU issued
system.cpu.iq.FU_type_0::SimdFloatCvt               0      0.00%     94.74% # Type of FU issued
system.cpu.iq.FU_type_0::SimdFloatDiv               0      0.00%     94.74% # Type of FU issued
system.cpu.iq.FU_type_0::SimdFloatMisc              0      0.00%     94.74% # Type of FU issued
system.cpu.iq.FU_type_0::SimdFloatMult              0      0.00%     94.74% # Type of FU issued
system.cpu.iq.FU_type_0::SimdFloatMultAcc            0      0.00%     94.74% # Type of FU issued
system.cpu.iq.FU_type_0::SimdFloatSqrt              0      0.00%     94.74% # Type of FU issued
system.cpu.iq.FU_type_0::SimdReduceAdd              0      0.00%     94.74% # Type of FU issued
system.cpu.iq.FU_type_0::SimdReduceAlu              0      0.00%     94.74% # Type of FU issued
system.cpu.iq.FU_type_0::SimdReduceCmp              0      0.00%     94.74% # Type of FU issued
system.cpu.iq.FU_type_0::SimdFloatReduceAdd            0      0.00%     94.74% # Type of FU issued
system.cpu.iq.FU_type_0::SimdFloatReduceCmp            0      0.00%     94.74% # Type of FU issued
system.cpu.iq.FU_type_0::SimdAes                    0      0.00%     94.74% # Type of FU issued
system.cpu.iq.FU_type_0::SimdAesMix                 0      0.00%     94.74% # Type of FU issued
system.cpu.iq.FU_type_0::SimdSha1Hash               0      0.00%     94.74% # Type of FU issued
system.cpu.iq.FU_type_0::SimdSha1Hash2              0      0.00%     94.74% # Type of FU issued
system.cpu.iq.FU_type_0::SimdSha256Hash             0      0.00%     94.74% # Type of FU issued
system.cpu.iq.FU_type_0::SimdSha256Hash2            0      0.00%     94.74% # Type of FU issued
system.cpu.iq.FU_type_0::SimdShaSigma2              0      0.00%     94.74% # Type of FU issued
system.cpu.iq.FU_type_0::SimdShaSigma3              0      0.00%     94.74% # Type of FU issued
system.cpu.iq.FU_type_0::SimdPredAlu                0      0.00%     94.74% # Type of FU issued
system.cpu.iq.FU_type_0::MemRead                    1      5.26%    100.00% # Type of FU issued
system.cpu.iq.FU_type_0::MemWrite                   0      0.00%    100.00% # Type of FU issued
system.cpu.iq.FU_type_0::FloatMemRead               0      0.00%    100.00% # Type of FU issued
system.cpu.iq.FU_type_0::FloatMemWrite              0      0.00%    100.00% # Type of FU issued
system.cpu.iq.FU_type_0::IprAccess                  0      0.00%    100.00% # Type of FU issued
system.cpu.iq.FU_type_0::InstPrefetch               0      0.00%    100.00% # Type of FU issued
system.cpu.iq.FU_type_0::total                     19                       # Type of FU issued
system.cpu.iq.fp_alu_accesses                       0                       # Number of floating point alu accesses
system.cpu.iq.fp_inst_queue_reads                   0                       # Number of floating instruction queue reads
system.cpu.iq.fp_inst_queue_wakeup_accesses            0                       # Number of floating instruction queue wakeup accesses
system.cpu.iq.fp_inst_queue_writes                  0                       # Number of floating instruction queue writes
system.cpu.iq.fu_busy_cnt                           0                       # FU busy when requested
system.cpu.iq.fu_busy_rate                          0                       # FU busy rate (busy events/executed inst)
system.cpu.iq.fu_full::No_OpClass                   0                       # attempts to use FU when none available
system.cpu.iq.fu_full::IntAlu                       0                       # attempts to use FU when none available
system.cpu.iq.fu_full::IntMult                      0                       # attempts to use FU when none available
system.cpu.iq.fu_full::IntDiv                       0                       # attempts to use FU when none available
system.cpu.iq.fu_full::FloatAdd                     0                       # attempts to use FU when none available
system.cpu.iq.fu_full::FloatCmp                     0                       # attempts to use FU when none available
system.cpu.iq.fu_full::FloatCvt                     0                       # attempts to use FU when none available
system.cpu.iq.fu_full::FloatMult                    0                       # attempts to use FU when none available
system.cpu.iq.fu_full::FloatMultAcc                 0                       # attempts to use FU when none available
system.cpu.iq.fu_full::FloatDiv                     0                       # attempts to use FU when none available
system.cpu.iq.fu_full::FloatMisc                    0                       # attempts to use FU when none available
system.cpu.iq.fu_full::FloatSqrt                    0                       # attempts to use FU when none available
system.cpu.iq.fu_full::SimdAdd                      0                       # attempts to use FU when none available
system.cpu.iq.fu_full::SimdAddAcc                   0                       # attempts to use FU when none available
system.cpu.iq.fu_full::SimdAlu                      0                       # attempts to use FU when none available
system.cpu.iq.fu_full::SimdCmp                      0                       # attempts to use FU when none available
system.cpu.iq.fu_full::SimdCvt                      0                       # attempts to use FU when none available
system.cpu.iq.fu_full::SimdMisc                     0                       # attempts to use FU when none available
system.cpu.iq.fu_full::SimdMult                     0                       # attempts to use FU when none available
system.cpu.iq.fu_full::SimdMultAcc                  0                       # attempts to use FU when none available
system.cpu.iq.fu_full::SimdShift                    0                       # attempts to use FU when none available
system.cpu.iq.fu_full::SimdShiftAcc                 0                       # attempts to use FU when none available
system.cpu.iq.fu_full::SimdDiv                      0                       # attempts to use FU when none available
system.cpu.iq.fu_full::SimdSqrt                     0                       # attempts to use FU when none available
system.cpu.iq.fu_full::SimdFloatAdd                 0                       # attempts to use FU when none available
system.cpu.iq.fu_full::SimdFloatAlu                 0                       # attempts to use FU when none available
system.cpu.iq.fu_full::SimdFloatCmp                 0                       # attempts to use FU when none available
system.cpu.iq.fu_full::SimdFloatCvt                 0                       # attempts to use FU when none available
system.cpu.iq.fu_full::SimdFloatDiv                 0                       # attempts to use FU when none available
system.cpu.iq.fu_full::SimdFloatMisc                0                       # attempts to use FU when none available
system.cpu.iq.fu_full::SimdFloatMult                0                       # attempts to use FU when none available
system.cpu.iq.fu_full::SimdFloatMultAcc             0                       # attempts to use FU when none available
system.cpu.iq.fu_full::SimdFloatSqrt                0                       # attempts to use FU when none available
system.cpu.iq.fu_full::SimdReduceAdd                0                       # attempts to use FU when none available
system.cpu.iq.fu_full::SimdReduceAlu                0                       # attempts to use FU when none available
system.cpu.iq.fu_full::SimdReduceCmp                0                       # attempts to use FU when none available
system.cpu.iq.fu_full::SimdFloatReduceAdd            0                       # attempts to use FU when none available
system.cpu.iq.fu_full::SimdFloatReduceCmp            0                       # attempts to use FU when none available
system.cpu.iq.fu_full::SimdAes                      0                       # attempts to use FU when none available
system.cpu.iq.fu_full::SimdAesMix                   0                       # attempts to use FU when none available
system.cpu.iq.fu_full::SimdSha1Hash                 0                       # attempts to use FU when none available
system.cpu.iq.fu_full::SimdSha1Hash2                0                       # attempts to use FU when none available
system.cpu.iq.fu_full::SimdSha256Hash               0                       # attempts to use FU when none available
system.cpu.iq.fu_full::SimdSha256Hash2              0                       # attempts to use FU when none available
system.cpu.iq.fu_full::SimdShaSigma2                0                       # attempts to use FU when none available
system.cpu.iq.fu_full::SimdShaSigma3                0                       # attempts to use FU when none available
system.cpu.iq.fu_full::SimdPredAlu                  0                       # attempts to use FU when none available
system.cpu.iq.fu_full::MemRead                      0                       # attempts to use FU when none available
system.cpu.iq.fu_full::MemWrite                     0                       # attempts to use FU when none available
system.cpu.iq.fu_full::FloatMemRead                 0                       # attempts to use FU when none available
system.cpu.iq.fu_full::FloatMemWrite                0                       # attempts to use FU when none available
system.cpu.iq.fu_full::IprAccess                    0                       # attempts to use FU when none available
system.cpu.iq.fu_full::InstPrefetch                 0                       # attempts to use FU when none available
system.cpu.iq.int_alu_accesses                     19                       # Number of integer alu accesses
system.cpu.iq.int_inst_queue_reads                 96                       # Number of integer instruction queue reads
system.cpu.iq.int_inst_queue_wakeup_accesses           19                       # Number of integer instruction queue wakeup accesses
system.cpu.iq.int_inst_queue_writes                34                       # Number of integer instruction queue writes
system.cpu.iq.iqInstsAdded                         19                       # Number of instructions added to the IQ (excludes non-spec)
system.cpu.iq.iqInstsIssued                        19                       # Number of instructions issued
system.cpu.iq.iqSquashedInstsExamined              15                       # Number of squashed instructions iterated over during squash; mainly for profiling
system.cpu.iq.issued_per_cycle::samples            58                       # Number of insts issued each cycle
system.cpu.iq.issued_per_cycle::mean         0.327586                       # Number of insts issued each cycle
system.cpu.iq.issued_per_cycle::stdev        1.114308                       # Number of insts issued each cycle
system.cpu.iq.issued_per_cycle::underflows            0      0.00%      0.00% # Number of insts issued each cycle
system.cpu.iq.issued_per_cycle::0                  51     87.93%     87.93% # Number of insts issued each cycle
system.cpu.iq.issued_per_cycle::1                   2      3.45%     91.38% # Number of insts issued each cycle
system.cpu.iq.issued_per_cycle::2                   2      3.45%     94.83% # Number of insts issued each cycle
system.cpu.iq.issued_per_cycle::3                   2      3.45%     98.28% # Number of insts issued each cycle
system.cpu.iq.issued_per_cycle::4                   0      0.00%     98.28% # Number of insts issued each cycle
system.cpu.iq.issued_per_cycle::5                   0      0.00%     98.28% # Number of insts issued each cycle
system.cpu.iq.issued_per_cycle::6                   0      0.00%     98.28% # Number of insts issued each cycle
system.cpu.iq.issued_per_cycle::7                   1      1.72%    100.00% # Number of insts issued each cycle
system.cpu.iq.issued_per_cycle::8                   0      0.00%    100.00% # Number of insts issued each cycle
system.cpu.iq.issued_per_cycle::overflows            0      0.00%    100.00% # Number of insts issued each cycle
system.cpu.iq.issued_per_cycle::min_value            0                       # Number of insts issued each cycle
system.cpu.iq.issued_per_cycle::max_value            7                       # Number of insts issued each cycle
system.cpu.iq.issued_per_cycle::total              58                       # Number of insts issued each cycle
system.cpu.iq.rate                           0.052198                       # Inst issue rate
system.cpu.iq.vec_alu_accesses                      0                       # Number of vector alu accesses
system.cpu.iq.vec_inst_queue_reads                  0                       # Number of vector instruction queue reads
system.cpu.iq.vec_inst_queue_wakeup_accesses            0                       # Number of vector instruction queue wakeup accesses
system.cpu.iq.vec_inst_queue_writes                 0                       # Number of vector instruction queue writes
system.cpu.itb.accesses                             0                       # DTB accesses
system.cpu.itb.align_faults                         0                       # Number of TLB faults due to alignment restrictions
system.cpu.itb.domain_faults                        0                       # Number of TLB faults due to domain restrictions
system.cpu.itb.flush_entries                        0                       # Number of entries that have been flushed from TLB
system.cpu.itb.flush_tlb                            2                       # Number of times complete TLB was flushed
system.cpu.itb.flush_tlb_asid                       0                       # Number of times TLB was flushed by ASID
system.cpu.itb.flush_tlb_mva                        0                       # Number of times TLB was flushed by MVA
system.cpu.itb.flush_tlb_mva_asid                   0                       # Number of times TLB was flushed by MVA & ASID
system.cpu.itb.hits                                 0                       # DTB hits
system.cpu.itb.inst_accesses                        0                       # ITB inst accesses
system.cpu.itb.inst_hits                            0                       # ITB inst hits
system.cpu.itb.inst_misses                          0                       # ITB inst misses
system.cpu.itb.misses                               0                       # DTB misses
system.cpu.itb.perms_faults                         0                       # Number of TLB faults due to permissions restrictions
system.cpu.itb.prefetch_faults                      0                       # Number of TLB faults due to prefetch
system.cpu.itb.read_accesses                        0                       # DTB read accesses
system.cpu.itb.read_hits                            0                       # DTB read hits
system.cpu.itb.read_misses                          0                       # DTB read misses
system.cpu.itb.stage2_mmu.stage2_tlb.accesses            0                       # DTB accesses
system.cpu.itb.stage2_mmu.stage2_tlb.align_faults            0                       # Number of TLB faults due to alignment restrictions
system.cpu.itb.stage2_mmu.stage2_tlb.domain_faults            0                       # Number of TLB faults due to domain restrictions
system.cpu.itb.stage2_mmu.stage2_tlb.flush_entries            0                       # Number of entries that have been flushed from TLB
system.cpu.itb.stage2_mmu.stage2_tlb.flush_tlb            0                       # Number of times complete TLB was flushed
system.cpu.itb.stage2_mmu.stage2_tlb.flush_tlb_asid            0                       # Number of times TLB was flushed by ASID
system.cpu.itb.stage2_mmu.stage2_tlb.flush_tlb_mva            0                       # Number of times TLB was flushed by MVA
system.cpu.itb.stage2_mmu.stage2_tlb.flush_tlb_mva_asid            0                       # Number of times TLB was flushed by MVA & ASID
system.cpu.itb.stage2_mmu.stage2_tlb.hits            0                       # DTB hits
system.cpu.itb.stage2_mmu.stage2_tlb.inst_accesses            0                       # ITB inst accesses
system.cpu.itb.stage2_mmu.stage2_tlb.inst_hits            0                       # ITB inst hits
system.cpu.itb.stage2_mmu.stage2_tlb.inst_misses            0                       # ITB inst misses
system.cpu.itb.stage2_mmu.stage2_tlb.misses            0                       # DTB misses
system.cpu.itb.stage2_mmu.stage2_tlb.perms_faults            0                       # Number of TLB faults due to permissions restrictions
system.cpu.itb.stage2_mmu.stage2_tlb.prefetch_faults            0                       # Number of TLB faults due to prefetch
system.cpu.itb.stage2_mmu.stage2_tlb.read_accesses            0                       # DTB read accesses
system.cpu.itb.stage2_mmu.stage2_tlb.read_hits            0                       # DTB read hits
system.cpu.itb.stage2_mmu.stage2_tlb.read_misses            0                       # DTB read misses
system.cpu.itb.stage2_mmu.stage2_tlb.walker.walkRequestOrigin_Requested::Data            0                       # Table walker requests started/completed, data/inst
system.cpu.itb.stage2_mmu.stage2_tlb.walker.walkRequestOrigin_Requested::Inst            0                       # Table walker requests started/completed, data/inst
system.cpu.itb.stage2_mmu.stage2_tlb.walker.walkRequestOrigin_Requested::total            0                       # Table walker requests started/completed, data/inst
system.cpu.itb.stage2_mmu.stage2_tlb.walker.walkRequestOrigin_Completed::Data            0                       # Table walker requests started/completed, data/inst
system.cpu.itb.stage2_mmu.stage2_tlb.walker.walkRequestOrigin_Completed::Inst            0                       # Table walker requests started/completed, data/inst
system.cpu.itb.stage2_mmu.stage2_tlb.walker.walkRequestOrigin_Completed::total            0                       # Table walker requests started/completed, data/inst
system.cpu.itb.stage2_mmu.stage2_tlb.walker.walkRequestOrigin::total            0                       # Table walker requests started/completed, data/inst
system.cpu.itb.stage2_mmu.stage2_tlb.walker.walks            0                       # Table walker walks requested
system.cpu.itb.stage2_mmu.stage2_tlb.write_accesses            0                       # DTB write accesses
system.cpu.itb.stage2_mmu.stage2_tlb.write_hits            0                       # DTB write hits
system.cpu.itb.stage2_mmu.stage2_tlb.write_misses            0                       # DTB write misses
system.cpu.itb.walker.walkRequestOrigin_Requested::Data            0                       # Table walker requests started/completed, data/inst
system.cpu.itb.walker.walkRequestOrigin_Requested::Inst            0                       # Table walker requests started/completed, data/inst
system.cpu.itb.walker.walkRequestOrigin_Requested::total            0                       # Table walker requests started/completed, data/inst
system.cpu.itb.walker.walkRequestOrigin_Completed::Data            0                       # Table walker requests started/completed, data/inst
system.cpu.itb.walker.walkRequestOrigin_Completed::Inst            0                       # Table walker requests started/completed, data/inst
system.cpu.itb.walker.walkRequestOrigin_Completed::total            0                       # Table walker requests started/completed, data/inst
system.cpu.itb.walker.walkRequestOrigin::total            0                       # Table walker requests started/completed, data/inst
system.cpu.itb.walker.walks                         0                       # Table walker walks requested
system.cpu.itb.write_accesses                       0                       # DTB write accesses
system.cpu.itb.write_hits                           0                       # DTB write hits
system.cpu.itb.write_misses                         0                       # DTB write misses
system.cpu.memDep0.conflictingLoads                 0                       # Number of conflicting loads.
system.cpu.memDep0.conflictingStores                0                       # Number of conflicting stores.
system.cpu.memDep0.insertedLoads                    1                       # Number of loads inserted to the mem dependence unit.
system.cpu.memDep0.insertedStores                   0                       # Number of stores inserted to the mem dependence unit.
system.cpu.misc_regfile_reads                      23                       # number of misc regfile reads
system.cpu.numCycles                              364                       # number of cpu cycles simulated
system.cpu.numWorkItemsCompleted                    0                       # number of work items this cpu completed
system.cpu.numWorkItemsStarted                      0                       # number of work items this cpu started
system.cpu.rename.BlockCycles                       1                       # Number of cycles rename is blocking
system.cpu.rename.CommittedMaps                     4                       # Number of HB maps that are committed
system.cpu.rename.IdleCycles                       52                       # Number of cycles rename is idle
system.cpu.rename.RenameLookups                    14                       # Number of register rename lookups that rename has made
system.cpu.rename.RenamedInsts                     19                       # Number of instructions processed by rename
system.cpu.rename.RenamedOperands                  19                       # Number of destination operands rename has renamed
system.cpu.rename.RunCycles                         3                       # Number of cycles rename is running
system.cpu.rename.SquashCycles                      2                       # Number of cycles rename is squashing
system.cpu.rename.UndoneMaps                       15                       # Number of HB maps that are undone due to squashing
system.cpu.rename.int_rename_lookups               14                       # Number of integer rename lookups
system.cpu.rename.serializeStallCycles              0                       # count of cycles rename stalled for serializing inst
system.cpu.rename.serializingInsts                  0                       # count of serializing insts renamed
system.cpu.rename.skidInsts                         0                       # count of insts added to the skid buffer
system.cpu.rename.tempSerializingInsts              0                       # count of temporary serializing insts renamed
system.cpu.rob.rob_reads                           73                       # The number of ROB reads
system.cpu.rob.rob_writes                          40                       # The number of ROB writes
system.cpu.timesIdled                               3                       # Number of times that the entire CPU went into an idle state and unscheduled itself
system.cpu.vec_regfile_reads                       44                       # number of vector regfile reads
system.cpu.workload.numSyscalls                    34                       # Number of system calls
system.membus.snoop_filter.hit_multi_requests            0                       # Number of requests hitting in the snoop filter with multiple (>1) holders of the requested data.
system.membus.snoop_filter.hit_multi_snoops            0                       # Number of snoops hitting in the snoop filter with multiple (>1) holders of the requested data.
system.membus.snoop_filter.hit_single_requests      1335617                       # Number of requests hitting in the snoop filter with a single holder of the requested data.
system.membus.snoop_filter.hit_single_snoops            0                       # Number of snoops hitting in the snoop filter with a single holder of the requested data.
system.membus.snoop_filter.tot_requests       2704477                       # Total number of requests made to the snoop filter.
system.membus.snoop_filter.tot_snoops               0                       # Total number of snoops made to the snoop filter.
system.switch_cpus.Branches                   7329594                       # Number of branches fetched
system.switch_cpus.committedInsts            50000002                       # Number of instructions committed
system.switch_cpus.committedOps              51551338                       # Number of ops (including micro ops) committed
system.switch_cpus.dtb.accesses                     0                       # DTB accesses
system.switch_cpus.dtb.align_faults                 0                       # Number of TLB faults due to alignment restrictions
system.switch_cpus.dtb.domain_faults                0                       # Number of TLB faults due to domain restrictions
system.switch_cpus.dtb.flush_entries                0                       # Number of entries that have been flushed from TLB
system.switch_cpus.dtb.flush_tlb                    2                       # Number of times complete TLB was flushed
system.switch_cpus.dtb.flush_tlb_asid               0                       # Number of times TLB was flushed by ASID
system.switch_cpus.dtb.flush_tlb_mva                0                       # Number of times TLB was flushed by MVA
system.switch_cpus.dtb.flush_tlb_mva_asid            0                       # Number of times TLB was flushed by MVA & ASID
system.switch_cpus.dtb.hits                         0                       # DTB hits
system.switch_cpus.dtb.inst_accesses                0                       # ITB inst accesses
system.switch_cpus.dtb.inst_hits                    0                       # ITB inst hits
system.switch_cpus.dtb.inst_misses                  0                       # ITB inst misses
system.switch_cpus.dtb.misses                       0                       # DTB misses
system.switch_cpus.dtb.perms_faults                 0                       # Number of TLB faults due to permissions restrictions
system.switch_cpus.dtb.prefetch_faults              0                       # Number of TLB faults due to prefetch
system.switch_cpus.dtb.read_accesses                0                       # DTB read accesses
system.switch_cpus.dtb.read_hits                    0                       # DTB read hits
system.switch_cpus.dtb.read_misses                  0                       # DTB read misses
system.switch_cpus.dtb.stage2_mmu.stage2_tlb.accesses            0                       # DTB accesses
system.switch_cpus.dtb.stage2_mmu.stage2_tlb.align_faults            0                       # Number of TLB faults due to alignment restrictions
system.switch_cpus.dtb.stage2_mmu.stage2_tlb.domain_faults            0                       # Number of TLB faults due to domain restrictions
system.switch_cpus.dtb.stage2_mmu.stage2_tlb.flush_entries            0                       # Number of entries that have been flushed from TLB
system.switch_cpus.dtb.stage2_mmu.stage2_tlb.flush_tlb            0                       # Number of times complete TLB was flushed
system.switch_cpus.dtb.stage2_mmu.stage2_tlb.flush_tlb_asid            0                       # Number of times TLB was flushed by ASID
system.switch_cpus.dtb.stage2_mmu.stage2_tlb.flush_tlb_mva            0                       # Number of times TLB was flushed by MVA
system.switch_cpus.dtb.stage2_mmu.stage2_tlb.flush_tlb_mva_asid            0                       # Number of times TLB was flushed by MVA & ASID
system.switch_cpus.dtb.stage2_mmu.stage2_tlb.hits            0                       # DTB hits
system.switch_cpus.dtb.stage2_mmu.stage2_tlb.inst_accesses            0                       # ITB inst accesses
system.switch_cpus.dtb.stage2_mmu.stage2_tlb.inst_hits            0                       # ITB inst hits
system.switch_cpus.dtb.stage2_mmu.stage2_tlb.inst_misses            0                       # ITB inst misses
system.switch_cpus.dtb.stage2_mmu.stage2_tlb.misses            0                       # DTB misses
system.switch_cpus.dtb.stage2_mmu.stage2_tlb.perms_faults            0                       # Number of TLB faults due to permissions restrictions
system.switch_cpus.dtb.stage2_mmu.stage2_tlb.prefetch_faults            0                       # Number of TLB faults due to prefetch
system.switch_cpus.dtb.stage2_mmu.stage2_tlb.read_accesses            0                       # DTB read accesses
system.switch_cpus.dtb.stage2_mmu.stage2_tlb.read_hits            0                       # DTB read hits
system.switch_cpus.dtb.stage2_mmu.stage2_tlb.read_misses            0                       # DTB read misses
system.switch_cpus.dtb.stage2_mmu.stage2_tlb.walker.walkRequestOrigin_Requested::Data            0                       # Table walker requests started/completed, data/inst
system.switch_cpus.dtb.stage2_mmu.stage2_tlb.walker.walkRequestOrigin_Requested::Inst            0                       # Table walker requests started/completed, data/inst
system.switch_cpus.dtb.stage2_mmu.stage2_tlb.walker.walkRequestOrigin_Requested::total            0                       # Table walker requests started/completed, data/inst
system.switch_cpus.dtb.stage2_mmu.stage2_tlb.walker.walkRequestOrigin_Completed::Data            0                       # Table walker requests started/completed, data/inst
system.switch_cpus.dtb.stage2_mmu.stage2_tlb.walker.walkRequestOrigin_Completed::Inst            0                       # Table walker requests started/completed, data/inst
system.switch_cpus.dtb.stage2_mmu.stage2_tlb.walker.walkRequestOrigin_Completed::total            0                       # Table walker requests started/completed, data/inst
system.switch_cpus.dtb.stage2_mmu.stage2_tlb.walker.walkRequestOrigin::total            0                       # Table walker requests started/completed, data/inst
system.switch_cpus.dtb.stage2_mmu.stage2_tlb.walker.walks            0                       # Table walker walks requested
system.switch_cpus.dtb.stage2_mmu.stage2_tlb.write_accesses            0                       # DTB write accesses
system.switch_cpus.dtb.stage2_mmu.stage2_tlb.write_hits            0                       # DTB write hits
system.switch_cpus.dtb.stage2_mmu.stage2_tlb.write_misses            0                       # DTB write misses
system.switch_cpus.dtb.walker.walkRequestOrigin_Requested::Data            0                       # Table walker requests started/completed, data/inst
system.switch_cpus.dtb.walker.walkRequestOrigin_Requested::Inst            0                       # Table walker requests started/completed, data/inst
system.switch_cpus.dtb.walker.walkRequestOrigin_Requested::total            0                       # Table walker requests started/completed, data/inst
system.switch_cpus.dtb.walker.walkRequestOrigin_Completed::Data            0                       # Table walker requests started/completed, data/inst
system.switch_cpus.dtb.walker.walkRequestOrigin_Completed::Inst            0                       # Table walker requests started/completed, data/inst
system.switch_cpus.dtb.walker.walkRequestOrigin_Completed::total            0                       # Table walker requests started/completed, data/inst
system.switch_cpus.dtb.walker.walkRequestOrigin::total            0                       # Table walker requests started/completed, data/inst
system.switch_cpus.dtb.walker.walks                 0                       # Table walker walks requested
system.switch_cpus.dtb.write_accesses               0                       # DTB write accesses
system.switch_cpus.dtb.write_hits                   0                       # DTB write hits
system.switch_cpus.dtb.write_misses                 0                       # DTB write misses
system.switch_cpus.idle_fraction             0.000018                       # Percentage of idle cycles
system.switch_cpus.itb.accesses                     0                       # DTB accesses
system.switch_cpus.itb.align_faults                 0                       # Number of TLB faults due to alignment restrictions
system.switch_cpus.itb.domain_faults                0                       # Number of TLB faults due to domain restrictions
system.switch_cpus.itb.flush_entries                0                       # Number of entries that have been flushed from TLB
system.switch_cpus.itb.flush_tlb                    2                       # Number of times complete TLB was flushed
system.switch_cpus.itb.flush_tlb_asid               0                       # Number of times TLB was flushed by ASID
system.switch_cpus.itb.flush_tlb_mva                0                       # Number of times TLB was flushed by MVA
system.switch_cpus.itb.flush_tlb_mva_asid            0                       # Number of times TLB was flushed by MVA & ASID
system.switch_cpus.itb.hits                         0                       # DTB hits
system.switch_cpus.itb.inst_accesses                0                       # ITB inst accesses
system.switch_cpus.itb.inst_hits                    0                       # ITB inst hits
system.switch_cpus.itb.inst_misses                  0                       # ITB inst misses
system.switch_cpus.itb.misses                       0                       # DTB misses
system.switch_cpus.itb.perms_faults                 0                       # Number of TLB faults due to permissions restrictions
system.switch_cpus.itb.prefetch_faults              0                       # Number of TLB faults due to prefetch
system.switch_cpus.itb.read_accesses                0                       # DTB read accesses
system.switch_cpus.itb.read_hits                    0                       # DTB read hits
system.switch_cpus.itb.read_misses                  0                       # DTB read misses
system.switch_cpus.itb.stage2_mmu.stage2_tlb.accesses            0                       # DTB accesses
system.switch_cpus.itb.stage2_mmu.stage2_tlb.align_faults            0                       # Number of TLB faults due to alignment restrictions
system.switch_cpus.itb.stage2_mmu.stage2_tlb.domain_faults            0                       # Number of TLB faults due to domain restrictions
system.switch_cpus.itb.stage2_mmu.stage2_tlb.flush_entries            0                       # Number of entries that have been flushed from TLB
system.switch_cpus.itb.stage2_mmu.stage2_tlb.flush_tlb            0                       # Number of times complete TLB was flushed
system.switch_cpus.itb.stage2_mmu.stage2_tlb.flush_tlb_asid            0                       # Number of times TLB was flushed by ASID
system.switch_cpus.itb.stage2_mmu.stage2_tlb.flush_tlb_mva            0                       # Number of times TLB was flushed by MVA
system.switch_cpus.itb.stage2_mmu.stage2_tlb.flush_tlb_mva_asid            0                       # Number of times TLB was flushed by MVA & ASID
system.switch_cpus.itb.stage2_mmu.stage2_tlb.hits            0                       # DTB hits
system.switch_cpus.itb.stage2_mmu.stage2_tlb.inst_accesses            0                       # ITB inst accesses
system.switch_cpus.itb.stage2_mmu.stage2_tlb.inst_hits            0                       # ITB inst hits
system.switch_cpus.itb.stage2_mmu.stage2_tlb.inst_misses            0                       # ITB inst misses
system.switch_cpus.itb.stage2_mmu.stage2_tlb.misses            0                       # DTB misses
system.switch_cpus.itb.stage2_mmu.stage2_tlb.perms_faults            0                       # Number of TLB faults due to permissions restrictions
system.switch_cpus.itb.stage2_mmu.stage2_tlb.prefetch_faults            0                       # Number of TLB faults due to prefetch
system.switch_cpus.itb.stage2_mmu.stage2_tlb.read_accesses            0                       # DTB read accesses
system.switch_cpus.itb.stage2_mmu.stage2_tlb.read_hits            0                       # DTB read hits
system.switch_cpus.itb.stage2_mmu.stage2_tlb.read_misses            0                       # DTB read misses
system.switch_cpus.itb.stage2_mmu.stage2_tlb.walker.walkRequestOrigin_Requested::Data            0                       # Table walker requests started/completed, data/inst
system.switch_cpus.itb.stage2_mmu.stage2_tlb.walker.walkRequestOrigin_Requested::Inst            0                       # Table walker requests started/completed, data/inst
system.switch_cpus.itb.stage2_mmu.stage2_tlb.walker.walkRequestOrigin_Requested::total            0                       # Table walker requests started/completed, data/inst
system.switch_cpus.itb.stage2_mmu.stage2_tlb.walker.walkRequestOrigin_Completed::Data            0                       # Table walker requests started/completed, data/inst
system.switch_cpus.itb.stage2_mmu.stage2_tlb.walker.walkRequestOrigin_Completed::Inst            0                       # Table walker requests started/completed, data/inst
system.switch_cpus.itb.stage2_mmu.stage2_tlb.walker.walkRequestOrigin_Completed::total            0                       # Table walker requests started/completed, data/inst
system.switch_cpus.itb.stage2_mmu.stage2_tlb.walker.walkRequestOrigin::total            0                       # Table walker requests started/completed, data/inst
system.switch_cpus.itb.stage2_mmu.stage2_tlb.walker.walks            0                       # Table walker walks requested
system.switch_cpus.itb.stage2_mmu.stage2_tlb.write_accesses            0                       # DTB write accesses
system.switch_cpus.itb.stage2_mmu.stage2_tlb.write_hits            0                       # DTB write hits
system.switch_cpus.itb.stage2_mmu.stage2_tlb.write_misses            0                       # DTB write misses
system.switch_cpus.itb.walker.walkRequestOrigin_Requested::Data            0                       # Table walker requests started/completed, data/inst
system.switch_cpus.itb.walker.walkRequestOrigin_Requested::Inst            0                       # Table walker requests started/completed, data/inst
system.switch_cpus.itb.walker.walkRequestOrigin_Requested::total            0                       # Table walker requests started/completed, data/inst
system.switch_cpus.itb.walker.walkRequestOrigin_Completed::Data            0                       # Table walker requests started/completed, data/inst
system.switch_cpus.itb.walker.walkRequestOrigin_Completed::Inst            0                       # Table walker requests started/completed, data/inst
system.switch_cpus.itb.walker.walkRequestOrigin_Completed::total            0                       # Table walker requests started/completed, data/inst
system.switch_cpus.itb.walker.walkRequestOrigin::total            0                       # Table walker requests started/completed, data/inst
system.switch_cpus.itb.walker.walks                 0                       # Table walker walks requested
system.switch_cpus.itb.write_accesses               0                       # DTB write accesses
system.switch_cpus.itb.write_hits                   0                       # DTB write hits
system.switch_cpus.itb.write_misses                 0                       # DTB write misses
system.switch_cpus.not_idle_fraction         0.999982                       # Percentage of non-idle cycles
system.switch_cpus.numCycles                172963758                       # number of cpu cycles simulated
system.switch_cpus.numWorkItemsCompleted            0                       # number of work items this cpu completed
system.switch_cpus.numWorkItemsStarted              0                       # number of work items this cpu started
system.switch_cpus.num_busy_cycles       172960642.744997                       # Number of busy cycles
system.switch_cpus.num_cc_register_reads     13300242                       # number of times the CC registers were read
system.switch_cpus.num_cc_register_writes     13325292                       # number of times the CC registers were written
system.switch_cpus.num_conditional_control_insts      5707905                       # number of instructions that are conditional controls
system.switch_cpus.num_fp_alu_accesses              0                       # Number of float alu accesses
system.switch_cpus.num_fp_insts                     0                       # number of float instructions
system.switch_cpus.num_fp_register_reads            0                       # number of times the floating registers were read
system.switch_cpus.num_fp_register_writes            0                       # number of times the floating registers were written
system.switch_cpus.num_func_calls              290147                       # number of times a function call or return occured
system.switch_cpus.num_idle_cycles        3115.255003                       # Number of idle cycles
system.switch_cpus.num_int_alu_accesses      45947561                       # Number of integer alu accesses
system.switch_cpus.num_int_insts             45947561                       # number of integer instructions
system.switch_cpus.num_int_register_reads     67761390                       # number of times the integer registers were read
system.switch_cpus.num_int_register_writes     38260586                       # number of times the integer registers were written
system.switch_cpus.num_load_insts            15459720                       # Number of load instructions
system.switch_cpus.num_mem_refs              22835427                       # number of memory refs
system.switch_cpus.num_store_insts            7375707                       # Number of store instructions
system.switch_cpus.num_vec_alu_accesses           224                       # Number of vector alu accesses
system.switch_cpus.num_vec_insts                  224                       # number of vector instructions
system.switch_cpus.num_vec_register_reads          294                       # number of times the vector registers were read
system.switch_cpus.num_vec_register_writes          146                       # number of times the vector registers were written
system.switch_cpus.op_class::No_OpClass             9      0.00%      0.00% # Class of executed instruction
system.switch_cpus.op_class::IntAlu          28717360     55.70%     55.70% # Class of executed instruction
system.switch_cpus.op_class::IntMult              133      0.00%     55.70% # Class of executed instruction
system.switch_cpus.op_class::IntDiv                 3      0.00%     55.70% # Class of executed instruction
system.switch_cpus.op_class::FloatAdd               0      0.00%     55.70% # Class of executed instruction
system.switch_cpus.op_class::FloatCmp               0      0.00%     55.70% # Class of executed instruction
system.switch_cpus.op_class::FloatCvt               0      0.00%     55.70% # Class of executed instruction
system.switch_cpus.op_class::FloatMult              0      0.00%     55.70% # Class of executed instruction
system.switch_cpus.op_class::FloatMultAcc            0      0.00%     55.70% # Class of executed instruction
system.switch_cpus.op_class::FloatDiv               0      0.00%     55.70% # Class of executed instruction
system.switch_cpus.op_class::FloatMisc              0      0.00%     55.70% # Class of executed instruction
system.switch_cpus.op_class::FloatSqrt              0      0.00%     55.70% # Class of executed instruction
system.switch_cpus.op_class::SimdAdd               29      0.00%     55.70% # Class of executed instruction
system.switch_cpus.op_class::SimdAddAcc             0      0.00%     55.70% # Class of executed instruction
system.switch_cpus.op_class::SimdAlu               34      0.00%     55.70% # Class of executed instruction
system.switch_cpus.op_class::SimdCmp               36      0.00%     55.70% # Class of executed instruction
system.switch_cpus.op_class::SimdCvt                0      0.00%     55.70% # Class of executed instruction
system.switch_cpus.op_class::SimdMisc              26      0.00%     55.70% # Class of executed instruction
system.switch_cpus.op_class::SimdMult               0      0.00%     55.70% # Class of executed instruction
system.switch_cpus.op_class::SimdMultAcc            0      0.00%     55.70% # Class of executed instruction
system.switch_cpus.op_class::SimdShift              0      0.00%     55.70% # Class of executed instruction
system.switch_cpus.op_class::SimdShiftAcc            0      0.00%     55.70% # Class of executed instruction
system.switch_cpus.op_class::SimdDiv                0      0.00%     55.70% # Class of executed instruction
system.switch_cpus.op_class::SimdSqrt               0      0.00%     55.70% # Class of executed instruction
system.switch_cpus.op_class::SimdFloatAdd            0      0.00%     55.70% # Class of executed instruction
system.switch_cpus.op_class::SimdFloatAlu            0      0.00%     55.70% # Class of executed instruction
system.switch_cpus.op_class::SimdFloatCmp            0      0.00%     55.70% # Class of executed instruction
system.switch_cpus.op_class::SimdFloatCvt            0      0.00%     55.70% # Class of executed instruction
system.switch_cpus.op_class::SimdFloatDiv            0      0.00%     55.70% # Class of executed instruction
system.switch_cpus.op_class::SimdFloatMisc            0      0.00%     55.70% # Class of executed instruction
system.switch_cpus.op_class::SimdFloatMult            0      0.00%     55.70% # Class of executed instruction
system.switch_cpus.op_class::SimdFloatMultAcc            0      0.00%     55.70% # Class of executed instruction
system.switch_cpus.op_class::SimdFloatSqrt            0      0.00%     55.70% # Class of executed instruction
system.switch_cpus.op_class::SimdReduceAdd            0      0.00%     55.70% # Class of executed instruction
system.switch_cpus.op_class::SimdReduceAlu            0      0.00%     55.70% # Class of executed instruction
system.switch_cpus.op_class::SimdReduceCmp            0      0.00%     55.70% # Class of executed instruction
system.switch_cpus.op_class::SimdFloatReduceAdd            0      0.00%     55.70% # Class of executed instruction
system.switch_cpus.op_class::SimdFloatReduceCmp            0      0.00%     55.70% # Class of executed instruction
system.switch_cpus.op_class::SimdAes                0      0.00%     55.70% # Class of executed instruction
system.switch_cpus.op_class::SimdAesMix             0      0.00%     55.70% # Class of executed instruction
system.switch_cpus.op_class::SimdSha1Hash            0      0.00%     55.70% # Class of executed instruction
system.switch_cpus.op_class::SimdSha1Hash2            0      0.00%     55.70% # Class of executed instruction
system.switch_cpus.op_class::SimdSha256Hash            0      0.00%     55.70% # Class of executed instruction
system.switch_cpus.op_class::SimdSha256Hash2            0      0.00%     55.70% # Class of executed instruction
system.switch_cpus.op_class::SimdShaSigma2            0      0.00%     55.70% # Class of executed instruction
system.switch_cpus.op_class::SimdShaSigma3            0      0.00%     55.70% # Class of executed instruction
system.switch_cpus.op_class::SimdPredAlu            0      0.00%     55.70% # Class of executed instruction
system.switch_cpus.op_class::MemRead         15459720     29.99%     85.69% # Class of executed instruction
system.switch_cpus.op_class::MemWrite         7375707     14.31%    100.00% # Class of executed instruction
system.switch_cpus.op_class::FloatMemRead            0      0.00%    100.00% # Class of executed instruction
system.switch_cpus.op_class::FloatMemWrite            0      0.00%    100.00% # Class of executed instruction
[...]
system.cpu.dcache.ReadReq_accesses::total    301540613                       # number of ReadReq accesses(hits+misses)
system.cpu.dcache.ReadReq_miss_rate::.cpu.data            1                       # miss rate for ReadReq accesses
system.cpu.dcache.ReadReq_miss_rate::.switch_cpus.data     0.019398                       # miss rate for ReadReq accesses
system.cpu.dcache.ReadReq_miss_rate::.switch_cpus_1.data     0.060072                       # miss rate for ReadReq accesses
system.cpu.dcache.ReadReq_miss_rate::total     0.057977                       # miss rate for ReadReq accesses
system.cpu.dcache.ReadReq_avg_miss_latency::.cpu.data        86000                       # average ReadReq miss latency
system.cpu.dcache.ReadReq_avg_miss_latency::.switch_cpus.data 19456.345478                       # average ReadReq miss latency
system.cpu.dcache.ReadReq_avg_miss_latency::.switch_cpus_1.data 24632.396242                       # average ReadReq miss latency
system.cpu.dcache.ReadReq_avg_miss_latency::total 24543.228259                       # average ReadReq miss latency
system.cpu.dcache.ReadReq_mshr_hits::.switch_cpus.data            1                       # number of ReadReq MSHR hits
system.cpu.dcache.ReadReq_mshr_hits::.switch_cpus_1.data      7837236                       # number of ReadReq MSHR hits
system.cpu.dcache.ReadReq_mshr_hits::total      7837237                       # number of ReadReq MSHR hits
system.cpu.dcache.ReadReq_mshr_misses::.cpu.data            1                       # number of ReadReq MSHR misses
system.cpu.dcache.ReadReq_mshr_misses::.switch_cpus.data       301182                       # number of ReadReq MSHR misses
system.cpu.dcache.ReadReq_mshr_misses::.switch_cpus_1.data      9344056                       # number of ReadReq MSHR misses
system.cpu.dcache.ReadReq_mshr_misses::total      9645239                       # number of ReadReq MSHR misses
system.cpu.dcache.ReadReq_mshr_miss_latency::.cpu.data        85000                       # number of ReadReq MSHR miss cycles
system.cpu.dcache.ReadReq_mshr_miss_latency::.switch_cpus.data   5558661500                       # number of ReadReq MSHR miss cycles
system.cpu.dcache.ReadReq_mshr_miss_latency::.switch_cpus_1.data 162909404500                       # number of ReadReq MSHR miss cycles
system.cpu.dcache.ReadReq_mshr_miss_latency::total 168468151000                       # number of ReadReq MSHR miss cycles
system.cpu.dcache.ReadReq_mshr_miss_rate::.cpu.data            1                       # mshr miss rate for ReadReq accesses
system.cpu.dcache.ReadReq_mshr_miss_rate::.switch_cpus.data     0.019398                       # mshr miss rate for ReadReq accesses
system.cpu.dcache.ReadReq_mshr_miss_rate::.switch_cpus_1.data     0.032670                       # mshr miss rate for ReadReq accesses
system.cpu.dcache.ReadReq_mshr_miss_rate::total     0.031987                       # mshr miss rate for ReadReq accesses
system.cpu.dcache.ReadReq_avg_mshr_miss_latency::.cpu.data        85000                       # average ReadReq mshr miss latency
system.cpu.dcache.ReadReq_avg_mshr_miss_latency::.switch_cpus.data 18456.154418                       # average ReadReq mshr miss latency
system.cpu.dcache.ReadReq_avg_mshr_miss_latency::.switch_cpus_1.data 17434.549247                       # average ReadReq mshr miss latency
system.cpu.dcache.ReadReq_avg_mshr_miss_latency::total 17466.456871                       # average ReadReq mshr miss latency
system.cpu.dcache.WriteReq_hits::.switch_cpus.data      7177587                       # number of WriteReq hits
system.cpu.dcache.WriteReq_hits::.switch_cpus_1.data     90938232                       # number of WriteReq hits
system.cpu.dcache.WriteReq_hits::total       98115819                       # number of WriteReq hits
system.cpu.dcache.WriteReq_misses::.switch_cpus.data       196383                       # number of WriteReq misses
system.cpu.dcache.WriteReq_misses::.switch_cpus_1.data      5677116                       # number of WriteReq misses
system.cpu.dcache.WriteReq_misses::total      5873499                       # number of WriteReq misses
system.cpu.dcache.WriteReq_miss_latency::.switch_cpus.data   8250908000                       # number of WriteReq miss cycles
system.cpu.dcache.WriteReq_miss_latency::.switch_cpus_1.data 259801242657                       # number of WriteReq miss cycles
system.cpu.dcache.WriteReq_miss_latency::total 268052150657                       # number of WriteReq miss cycles
system.cpu.dcache.WriteReq_accesses::.switch_cpus.data      7373970                       # number of WriteReq accesses(hits+misses)
system.cpu.dcache.WriteReq_accesses::.switch_cpus_1.data     96615348                       # number of WriteReq accesses(hits+misses)
system.cpu.dcache.WriteReq_accesses::total    103989318                       # number of WriteReq accesses(hits+misses)
system.cpu.dcache.WriteReq_miss_rate::.switch_cpus.data     0.026632                       # miss rate for WriteReq accesses
system.cpu.dcache.WriteReq_miss_rate::.switch_cpus_1.data     0.058760                       # miss rate for WriteReq accesses
system.cpu.dcache.WriteReq_miss_rate::total     0.056482                       # miss rate for WriteReq accesses
system.cpu.dcache.WriteReq_avg_miss_latency::.switch_cpus.data 42014.369879                       # average WriteReq miss latency
system.cpu.dcache.WriteReq_avg_miss_latency::.switch_cpus_1.data 45762.891344                       # average WriteReq miss latency
system.cpu.dcache.WriteReq_avg_miss_latency::total 45637.557895                       # average WriteReq miss latency
system.cpu.dcache.WriteReq_mshr_hits::.switch_cpus_1.data      3096227                       # number of WriteReq MSHR hits
system.cpu.dcache.WriteReq_mshr_hits::total      3096227                       # number of WriteReq MSHR hits
system.cpu.dcache.WriteReq_mshr_misses::.switch_cpus.data       196383                       # number of WriteReq MSHR misses
system.cpu.dcache.WriteReq_mshr_misses::.switch_cpus_1.data      2580889                       # number of WriteReq MSHR misses
system.cpu.dcache.WriteReq_mshr_misses::total      2777272                       # number of WriteReq MSHR misses
system.cpu.dcache.WriteReq_mshr_miss_latency::.switch_cpus.data   8054525000                       # number of WriteReq MSHR miss cycles
system.cpu.dcache.WriteReq_mshr_miss_latency::.switch_cpus_1.data  83266632986                       # number of WriteReq MSHR miss cycles
system.cpu.dcache.WriteReq_mshr_miss_latency::total  91321157986                       # number of WriteReq MSHR miss cycles
system.cpu.dcache.WriteReq_mshr_miss_rate::.switch_cpus.data     0.026632                       # mshr miss rate for WriteReq accesses
system.cpu.dcache.WriteReq_mshr_miss_rate::.switch_cpus_1.data     0.026713                       # mshr miss rate for WriteReq accesses
system.cpu.dcache.WriteReq_mshr_miss_rate::total     0.026707                       # mshr miss rate for WriteReq accesses
system.cpu.dcache.WriteReq_avg_mshr_miss_latency::.switch_cpus.data 41014.369879                       # average WriteReq mshr miss latency
system.cpu.dcache.WriteReq_avg_mshr_miss_latency::.switch_cpus_1.data 32262.771853                       # average WriteReq mshr miss latency
system.cpu.dcache.WriteReq_avg_mshr_miss_latency::total 32881.603957                       # average WriteReq mshr miss latency
system.cpu.dcache.SoftPFReq_hits::.switch_cpus.data          119                       # number of SoftPFReq hits
system.cpu.dcache.SoftPFReq_hits::.switch_cpus_1.data          752                       # number of SoftPFReq hits
system.cpu.dcache.SoftPFReq_hits::total           871                       # number of SoftPFReq hits
system.cpu.dcache.SoftPFReq_misses::.switch_cpus.data            3                       # number of SoftPFReq misses
system.cpu.dcache.SoftPFReq_misses::.switch_cpus_1.data          396                       # number of SoftPFReq misses
system.cpu.dcache.SoftPFReq_misses::total          399                       # number of SoftPFReq misses
system.cpu.dcache.SoftPFReq_accesses::.switch_cpus.data          122                       # number of SoftPFReq accesses(hits+misses)
system.cpu.dcache.SoftPFReq_accesses::.switch_cpus_1.data         1148                       # number of SoftPFReq accesses(hits+misses)
system.cpu.dcache.SoftPFReq_accesses::total         1270                       # number of SoftPFReq accesses(hits+misses)
system.cpu.dcache.SoftPFReq_miss_rate::.switch_cpus.data     0.024590                       # miss rate for SoftPFReq accesses
system.cpu.dcache.SoftPFReq_miss_rate::.switch_cpus_1.data     0.344948                       # miss rate for SoftPFReq accesses
system.cpu.dcache.SoftPFReq_miss_rate::total     0.314173                       # miss rate for SoftPFReq accesses
system.cpu.dcache.SoftPFReq_mshr_misses::.switch_cpus.data            3                       # number of SoftPFReq MSHR misses
system.cpu.dcache.SoftPFReq_mshr_misses::.switch_cpus_1.data          376                       # number of SoftPFReq MSHR misses
system.cpu.dcache.SoftPFReq_mshr_misses::total          379                       # number of SoftPFReq MSHR misses
system.cpu.dcache.SoftPFReq_mshr_miss_latency::.switch_cpus.data       241000                       # number of SoftPFReq MSHR miss cycles
system.cpu.dcache.SoftPFReq_mshr_miss_latency::.switch_cpus_1.data      4842500                       # number of SoftPFReq MSHR miss cycles
system.cpu.dcache.SoftPFReq_mshr_miss_latency::total      5083500                       # number of SoftPFReq MSHR miss cycles
system.cpu.dcache.SoftPFReq_mshr_miss_rate::.switch_cpus.data     0.024590                       # mshr miss rate for SoftPFReq accesses
system.cpu.dcache.SoftPFReq_mshr_miss_rate::.switch_cpus_1.data     0.327526                       # mshr miss rate for SoftPFReq accesses
system.cpu.dcache.SoftPFReq_mshr_miss_rate::total     0.298425                       # mshr miss rate for SoftPFReq accesses
system.cpu.dcache.SoftPFReq_avg_mshr_miss_latency::.switch_cpus.data 80333.333333                       # average SoftPFReq mshr miss latency
system.cpu.dcache.SoftPFReq_avg_mshr_miss_latency::.switch_cpus_1.data 12878.989362                       # average SoftPFReq mshr miss latency
system.cpu.dcache.SoftPFReq_avg_mshr_miss_latency::total 13412.928760                       # average SoftPFReq mshr miss latency
system.cpu.dcache.WriteLineReq_misses::.switch_cpus.data            7                       # number of WriteLineReq misses
system.cpu.dcache.WriteLineReq_misses::.switch_cpus_1.data        39413                       # number of WriteLineReq misses
system.cpu.dcache.WriteLineReq_misses::total        39420                       # number of WriteLineReq misses
system.cpu.dcache.WriteLineReq_miss_latency::.switch_cpus.data       217000                       # number of WriteLineReq miss cycles
system.cpu.dcache.WriteLineReq_miss_latency::.switch_cpus_1.data   1290245706                       # number of WriteLineReq miss cycles
system.cpu.dcache.WriteLineReq_miss_latency::total   1290462706                       # number of WriteLineReq miss cycles
system.cpu.dcache.WriteLineReq_accesses::.switch_cpus.data            7                       # number of WriteLineReq accesses(hits+misses)
system.cpu.dcache.WriteLineReq_accesses::.switch_cpus_1.data        39413                       # number of WriteLineReq accesses(hits+misses)
system.cpu.dcache.WriteLineReq_accesses::total        39420                       # number of WriteLineReq accesses(hits+misses)
system.cpu.dcache.WriteLineReq_miss_rate::.switch_cpus.data            1                       # miss rate for WriteLineReq accesses
system.cpu.dcache.WriteLineReq_miss_rate::.switch_cpus_1.data            1                       # miss rate for WriteLineReq accesses
system.cpu.dcache.WriteLineReq_miss_rate::total            1                       # miss rate for WriteLineReq accesses
system.cpu.dcache.WriteLineReq_avg_miss_latency::.switch_cpus.data        31000                       # average WriteLineReq miss latency
system.cpu.dcache.WriteLineReq_avg_miss_latency::.switch_cpus_1.data 32736.551544                       # average WriteLineReq miss latency
system.cpu.dcache.WriteLineReq_avg_miss_latency::total 32736.243176                       # average WriteLineReq miss latency
system.cpu.dcache.WriteLineReq_mshr_misses::.switch_cpus.data            7                       # number of WriteLineReq MSHR misses
system.cpu.dcache.WriteLineReq_mshr_misses::.switch_cpus_1.data        39413                       # number of WriteLineReq MSHR misses
system.cpu.dcache.WriteLineReq_mshr_misses::total        39420                       # number of WriteLineReq MSHR misses
system.cpu.dcache.WriteLineReq_mshr_miss_latency::.switch_cpus.data       210000                       # number of WriteLineReq MSHR miss cycles
system.cpu.dcache.WriteLineReq_mshr_miss_latency::.switch_cpus_1.data   1250832706                       # number of WriteLineReq MSHR miss cycles
system.cpu.dcache.WriteLineReq_mshr_miss_latency::total   1251042706                       # number of WriteLineReq MSHR miss cycles
system.cpu.dcache.WriteLineReq_mshr_miss_rate::.switch_cpus.data            1                       # mshr miss rate for WriteLineReq accesses
system.cpu.dcache.WriteLineReq_mshr_miss_rate::.switch_cpus_1.data            1                       # mshr miss rate for WriteLineReq accesses
system.cpu.dcache.WriteLineReq_mshr_miss_rate::total            1                       # mshr miss rate for WriteLineReq accesses
system.cpu.dcache.WriteLineReq_avg_mshr_miss_latency::.switch_cpus.data        30000                       # average WriteLineReq mshr miss latency
system.cpu.dcache.WriteLineReq_avg_mshr_miss_latency::.switch_cpus_1.data 31736.551544                       # average WriteLineReq mshr miss latency
system.cpu.dcache.WriteLineReq_avg_mshr_miss_latency::total 31736.243176                       # average WriteLineReq mshr miss latency
system.cpu.dcache.LoadLockedReq_hits::.switch_cpus.data           36                       # number of LoadLockedReq hits
system.cpu.dcache.LoadLockedReq_hits::.switch_cpus_1.data           63                       # number of LoadLockedReq hits
system.cpu.dcache.LoadLockedReq_hits::total           99                       # number of LoadLockedReq hits
system.cpu.dcache.LoadLockedReq_misses::.switch_cpus_1.data           11                       # number of LoadLockedReq misses
system.cpu.dcache.LoadLockedReq_misses::total           11                       # number of LoadLockedReq misses
system.cpu.dcache.LoadLockedReq_miss_latency::.switch_cpus_1.data       487000                       # number of LoadLockedReq miss cycles
system.cpu.dcache.LoadLockedReq_miss_latency::total       487000                       # number of LoadLockedReq miss cycles
system.cpu.dcache.LoadLockedReq_accesses::.switch_cpus.data           36                       # number of LoadLockedReq accesses(hits+misses)
system.cpu.dcache.LoadLockedReq_accesses::.switch_cpus_1.data           74                       # number of LoadLockedReq accesses(hits+misses)
system.cpu.dcache.LoadLockedReq_accesses::total          110                       # number of LoadLockedReq accesses(hits+misses)
system.cpu.dcache.LoadLockedReq_miss_rate::.switch_cpus_1.data     0.148649                       # miss rate for LoadLockedReq accesses
system.cpu.dcache.LoadLockedReq_miss_rate::total     0.100000                       # miss rate for LoadLockedReq accesses
system.cpu.dcache.LoadLockedReq_avg_miss_latency::.switch_cpus_1.data 44272.727273                       # average LoadLockedReq miss latency
system.cpu.dcache.LoadLockedReq_avg_miss_latency::total 44272.727273                       # average LoadLockedReq miss latency
system.cpu.dcache.LoadLockedReq_mshr_hits::.switch_cpus_1.data           11                       # number of LoadLockedReq MSHR hits
system.cpu.dcache.LoadLockedReq_mshr_hits::total           11                       # number of LoadLockedReq MSHR hits
system.cpu.dcache.StoreCondReq_hits::.switch_cpus.data           36                       # number of StoreCondReq hits
system.cpu.dcache.StoreCondReq_hits::.switch_cpus_1.data           40                       # number of StoreCondReq hits
system.cpu.dcache.StoreCondReq_hits::total           76                       # number of StoreCondReq hits
system.cpu.dcache.StoreCondReq_accesses::.switch_cpus.data           36                       # number of StoreCondReq accesses(hits+misses)
system.cpu.dcache.StoreCondReq_accesses::.switch_cpus_1.data           40                       # number of StoreCondReq accesses(hits+misses)
system.cpu.dcache.StoreCondReq_accesses::total           76                       # number of StoreCondReq accesses(hits+misses)
system.cpu.dcache.power_state.pwrStateResidencyTicks::UNDEFINED 447503619500                       # Cumulative time (in ticks) in various power states
system.cpu.dcache.tags.tagsinuse          1023.324793                       # Cycle average of tags in use
system.cpu.dcache.tags.total_refs           394637312                       # Total number of references to valid blocks.
system.cpu.dcache.tags.sampled_refs          12462310                       # Sample count of references to valid blocks.
system.cpu.dcache.tags.avg_refs             31.666466                       # Average number of references to valid blocks.
system.cpu.dcache.tags.warmup_cycle            176500                       # Cycle when the warmup percentage was hit.
system.cpu.dcache.tags.occ_blocks::.cpu.data     0.000873                       # Average occupied blocks per requestor
system.cpu.dcache.tags.occ_blocks::.switch_cpus.data   197.401467                       # Average occupied blocks per requestor
system.cpu.dcache.tags.occ_blocks::.switch_cpus_1.data   825.922453                       # Average occupied blocks per requestor
system.cpu.dcache.tags.occ_percent::.cpu.data     0.000001                       # Average percentage of cache occupancy
system.cpu.dcache.tags.occ_percent::.switch_cpus.data     0.192775                       # Average percentage of cache occupancy
system.cpu.dcache.tags.occ_percent::.switch_cpus_1.data     0.806565                       # Average percentage of cache occupancy
system.cpu.dcache.tags.occ_percent::total     0.999341                       # Average percentage of cache occupancy
system.cpu.dcache.tags.occ_task_id_blocks::1024         1024                       # Occupied blocks per task id
system.cpu.dcache.tags.age_task_id_blocks_1024::0          180                       # Occupied blocks per task id
system.cpu.dcache.tags.age_task_id_blocks_1024::1          561                       # Occupied blocks per task id
system.cpu.dcache.tags.age_task_id_blocks_1024::2          283                       # Occupied blocks per task id
system.cpu.dcache.tags.occ_task_id_percent::1024            1                       # Percentage of cache occupancy per task id
system.cpu.dcache.tags.tag_accesses         823603924                       # Number of tag accesses
system.cpu.dcache.tags.data_accesses        823603924                       # Number of data accesses
system.cpu.dcache.tags.power_state.pwrStateResidencyTicks::UNDEFINED 447503619500                       # Cumulative time (in ticks) in various power states
system.cpu.power_state.numTransitions               1                       # Number of power state transitions
system.cpu.power_state.pwrStateResidencyTicks::ON      8060000                       # Cumulative time (in ticks) in various power states
system.cpu.power_state.pwrStateResidencyTicks::OFF 447495559500                       # Cumulative time (in ticks) in various power states

---------- End Simulation Statistics   ----------
