
---------- Begin Simulation Statistics ----------
final_tick                               84834185030000                       # Number of ticks from beginning of simulation (restored from checkpoints and never reset)
host_inst_rate                                  55210                       # Simulator instruction rate (inst/s)
host_mem_usage                                 842564                       # Number of bytes of host memory used
host_op_rate                                   101689                       # Simulator op (including micro ops) rate (op/s)
host_seconds                                 18112.76                       # Real time elapsed on the host
host_tick_rate                             4683670120                       # Simulator tick rate (ticks/s)
sim_freq                                 1000000000000                       # Frequency of simulated ticks
sim_insts                                  1000000000                       # Number of instructions simulated
sim_ops                                    1841869456                       # Number of ops (including micro ops) simulated
sim_seconds                                 84.834185                       # Number of seconds simulated
sim_ticks                                84834185030000                       # Number of ticks simulated
system.cpu.Branches                         256352858                       # Number of branches fetched
system.cpu.committedInsts                  1000000000                       # Number of instructions committed
system.cpu.committedOps                    1841869456                       # Number of ops (including micro ops) committed
system.cpu.dtb.rdAccesses                   284823142                       # TLB accesses on read requests
system.cpu.dtb.rdMisses                      31820237                       # TLB misses on read requests
system.cpu.dtb.wrAccesses                    98352209                       # TLB accesses on write requests
system.cpu.dtb.wrMisses                        209070                       # TLB misses on write requests
system.cpu.idle_fraction                            0                       # Percentage of idle cycles
system.cpu.itb.rdAccesses                           0                       # TLB accesses on read requests
system.cpu.itb.rdMisses                             0                       # TLB misses on read requests
system.cpu.itb.wrAccesses                  1298626240                       # TLB accesses on write requests
system.cpu.itb.wrMisses                           221                       # TLB misses on write requests
system.cpu.not_idle_fraction                        1                       # Percentage of non-idle cycles
system.cpu.numCycles                     169668370060                       # number of cpu cycles simulated
system.cpu.numWorkItemsCompleted                    0                       # number of work items this cpu completed
system.cpu.numWorkItemsStarted                      0                       # number of work items this cpu started
system.cpu.num_busy_cycles               169668370060                       # Number of busy cycles
system.cpu.num_cc_register_reads           1261898337                       # number of times the CC registers were read
system.cpu.num_cc_register_writes           667443197                       # number of times the CC registers were written
system.cpu.num_conditional_control_insts    218779724                       # number of instructions that are conditional controls
system.cpu.num_fp_alu_accesses                7680252                       # Number of float alu accesses
system.cpu.num_fp_insts                       7680252                       # number of float instructions
system.cpu.num_fp_register_reads             11503720                       # number of times the floating registers were read
system.cpu.num_fp_register_writes             6383994                       # number of times the floating registers were written
system.cpu.num_func_calls                    10355163                       # number of times a function call or return occured
system.cpu.num_idle_cycles                          0                       # Number of idle cycles
system.cpu.num_int_alu_accesses            1830942855                       # Number of integer alu accesses
system.cpu.num_int_insts                   1830942855                       # number of integer instructions
system.cpu.num_int_register_reads          3502733647                       # number of times the integer registers were read
system.cpu.num_int_register_writes         1477633494                       # number of times the integer registers were written
system.cpu.num_load_insts                   284781762                       # Number of load instructions
system.cpu.num_mem_refs                     383133965                       # number of memory refs
system.cpu.num_store_insts                   98352203                       # Number of store instructions
system.cpu.num_vec_alu_accesses                     0                       # Number of vector alu accesses
system.cpu.num_vec_insts                            0                       # number of vector instructions
system.cpu.num_vec_register_reads                   0                       # number of times the vector registers were read
system.cpu.num_vec_register_writes                  0                       # number of times the vector registers were written
system.cpu.op_class::No_OpClass               3772619      0.20%      0.20% # Class of executed instruction
system.cpu.op_class::IntAlu                1446318973     78.52%     78.73% # Class of executed instruction
system.cpu.op_class::IntMult                  2685834      0.15%     78.87% # Class of executed instruction
system.cpu.op_class::IntDiv                      1777      0.00%     78.87% # Class of executed instruction
system.cpu.op_class::FloatAdd                  421412      0.02%     78.90% # Class of executed instruction
system.cpu.op_class::FloatCmp                       0      0.00%     78.90% # Class of executed instruction
system.cpu.op_class::FloatCvt                     160      0.00%     78.90% # Class of executed instruction
system.cpu.op_class::FloatMult                      0      0.00%     78.90% # Class of executed instruction
system.cpu.op_class::FloatMultAcc                   0      0.00%     78.90% # Class of executed instruction
system.cpu.op_class::FloatDiv                       0      0.00%     78.90% # Class of executed instruction
system.cpu.op_class::FloatMisc                      0      0.00%     78.90% # Class of executed instruction
system.cpu.op_class::FloatSqrt                      0      0.00%     78.90% # Class of executed instruction
system.cpu.op_class::SimdAdd                        0      0.00%     78.90% # Class of executed instruction
system.cpu.op_class::SimdAddAcc                     0      0.00%     78.90% # Class of executed instruction
system.cpu.op_class::SimdAlu                       50      0.00%     78.90% # Class of executed instruction
system.cpu.op_class::SimdCmp                        0      0.00%     78.90% # Class of executed instruction
system.cpu.op_class::SimdCvt                  1295778      0.07%     78.97% # Class of executed instruction
system.cpu.op_class::SimdMisc                 4245102      0.23%     79.20% # Class of executed instruction
system.cpu.op_class::SimdMult                       0      0.00%     79.20% # Class of executed instruction
system.cpu.op_class::SimdMultAcc                    0      0.00%     79.20% # Class of executed instruction
system.cpu.op_class::SimdShift                      0      0.00%     79.20% # Class of executed instruction
system.cpu.op_class::SimdShiftAcc                   0      0.00%     79.20% # Class of executed instruction
system.cpu.op_class::SimdDiv                        0      0.00%     79.20% # Class of executed instruction
system.cpu.op_class::SimdSqrt                       0      0.00%     79.20% # Class of executed instruction
system.cpu.op_class::SimdFloatAdd                   0      0.00%     79.20% # Class of executed instruction
system.cpu.op_class::SimdFloatAlu                   0      0.00%     79.20% # Class of executed instruction
system.cpu.op_class::SimdFloatCmp                   0      0.00%     79.20% # Class of executed instruction
system.cpu.op_class::SimdFloatCvt                   0      0.00%     79.20% # Class of executed instruction
system.cpu.op_class::SimdFloatDiv                   0      0.00%     79.20% # Class of executed instruction
system.cpu.op_class::SimdFloatMisc                  0      0.00%     79.20% # Class of executed instruction
system.cpu.op_class::SimdFloatMult                  0      0.00%     79.20% # Class of executed instruction
system.cpu.op_class::SimdFloatMultAcc               0      0.00%     79.20% # Class of executed instruction
system.cpu.op_class::SimdFloatSqrt                  0      0.00%     79.20% # Class of executed instruction
system.cpu.op_class::SimdReduceAdd                  0      0.00%     79.20% # Class of executed instruction
system.cpu.op_class::SimdReduceAlu                  0      0.00%     79.20% # Class of executed instruction
system.cpu.op_class::SimdReduceCmp                  0      0.00%     79.20% # Class of executed instruction
system.cpu.op_class::SimdFloatReduceAdd             0      0.00%     79.20% # Class of executed instruction
system.cpu.op_class::SimdFloatReduceCmp             0      0.00%     79.20% # Class of executed instruction
system.cpu.op_class::SimdAes                        0      0.00%     79.20% # Class of executed instruction
system.cpu.op_class::SimdAesMix                     0      0.00%     79.20% # Class of executed instruction
system.cpu.op_class::SimdSha1Hash                   0      0.00%     79.20% # Class of executed instruction
system.cpu.op_class::SimdSha1Hash2                  0      0.00%     79.20% # Class of executed instruction
system.cpu.op_class::SimdSha256Hash                 0      0.00%     79.20% # Class of executed instruction
system.cpu.op_class::SimdSha256Hash2                0      0.00%     79.20% # Class of executed instruction
system.cpu.op_class::SimdShaSigma2                  0      0.00%     79.20% # Class of executed instruction
system.cpu.op_class::SimdShaSigma3                  0      0.00%     79.20% # Class of executed instruction
system.cpu.op_class::SimdPredAlu                    0      0.00%     79.20% # Class of executed instruction
system.cpu.op_class::MemRead                283485688     15.39%     94.59% # Class of executed instruction
system.cpu.op_class::MemWrite                98351883      5.34%     99.93% # Class of executed instruction
system.cpu.op_class::FloatMemRead             1296074      0.07%    100.00% # Class of executed instruction
system.cpu.op_class::FloatMemWrite                320      0.00%    100.00% # Class of executed instruction
system.cpu.op_class::IprAccess                      0      0.00%    100.00% # Class of executed instruction
system.cpu.op_class::InstPrefetch                   0      0.00%    100.00% # Class of executed instruction
system.cpu.op_class::total                 1841875670                       # Class of executed instruction
system.cpu.valuePred.lookups               1472256460                       # Number of VP lookups
system.cpu.valuePred.numCorrectPredicted    735879334                       # Number of value predictions
system.cpu.valuePred.numIncorrectPredicted     88906586                       # Number of incorrect value predictions
system.cpu.valuePred.numLoadCorrectPredicted     95786264                       # Number of Correct Load value predictions
system.cpu.valuePred.numLoadPredicted       119451770                       # Number of Load value predictions
system.cpu.valuePred.numPredicted           824785970                       # Number of value predictions
system.cpu.valuePred.valuePredAccuracy       0.892206                       # VP Accuracy
system.cpu.valuePred.valuePredCoverage       0.499831                       # VP Coverage
system.cpu.workload.numSyscalls                   444                       # Number of system calls
system.membus.snoop_filter.hit_multi_requests            0                       # Number of requests hitting in the snoop filter with multiple (>1) holders of the requested data.
system.membus.snoop_filter.hit_multi_snoops            0                       # Number of snoops hitting in the snoop filter with multiple (>1) holders of the requested data.
system.membus.snoop_filter.hit_single_requests            0                       # Number of requests hitting in the snoop filter with a single holder of the requested data.
system.membus.snoop_filter.hit_single_snoops            0                       # Number of snoops hitting in the snoop filter with a single holder of the requested data.
system.membus.snoop_filter.tot_requests             0                       # Total number of requests made to the snoop filter.
system.membus.snoop_filter.tot_snoops               0                       # Total number of snoops made to the snoop filter.
system.membus.trans_dist::ReadReq          1583449260                       # Transaction distribution
system.membus.trans_dist::ReadResp         1583449259                       # Transaction distribution
system.membus.trans_dist::WriteReq           98346058                       # Transaction distribution
system.membus.trans_dist::WriteResp          98346058                       # Transaction distribution
system.membus.pkt_count_system.cpu.icache_port::system.mem_ctrls.port   2597252362                       # Packet count per connected master and slave (bytes)
system.membus.pkt_count_system.cpu.icache_port::total   2597252362                       # Packet count per connected master and slave (bytes)
system.membus.pkt_count_system.cpu.dcache_port::system.mem_ctrls.port    766338273                       # Packet count per connected master and slave (bytes)
system.membus.pkt_count_system.cpu.dcache_port::total    766338273                       # Packet count per connected master and slave (bytes)
system.membus.pkt_count::total             3363590635                       # Packet count per connected master and slave (bytes)
system.membus.pkt_size_system.cpu.icache_port::system.mem_ctrls.port  10389009448                       # Cumulative packet size per connected master and slave (bytes)
system.membus.pkt_size_system.cpu.icache_port::total  10389009448                       # Cumulative packet size per connected master and slave (bytes)
system.membus.pkt_size_system.cpu.dcache_port::system.mem_ctrls.port   2691765240                       # Cumulative packet size per connected master and slave (bytes)
system.membus.pkt_size_system.cpu.dcache_port::total   2691765240                       # Cumulative packet size per connected master and slave (bytes)
system.membus.pkt_size::total             13080774688                       # Cumulative packet size per connected master and slave (bytes)
system.membus.snoops                                0                       # Total snoops (count)
system.membus.snoopTraffic                          0                       # Total snoop traffic (bytes)
system.membus.snoop_fanout::samples        1681795318                       # Request fanout histogram
system.membus.snoop_fanout::mean                    0                       # Request fanout histogram
system.membus.snoop_fanout::stdev                   0                       # Request fanout histogram
system.membus.snoop_fanout::underflows              0      0.00%      0.00% # Request fanout histogram
system.membus.snoop_fanout::0              1681795318    100.00%    100.00% # Request fanout histogram
system.membus.snoop_fanout::1                       0      0.00%    100.00% # Request fanout histogram
system.membus.snoop_fanout::overflows               0      0.00%    100.00% # Request fanout histogram
system.membus.snoop_fanout::min_value               0                       # Request fanout histogram
system.membus.snoop_fanout::max_value               0                       # Request fanout histogram
system.membus.snoop_fanout::total          1681795318                       # Request fanout histogram
system.membus.reqLayer2.occupancy        1780141376000                       # Layer occupancy (ticks)
system.membus.reqLayer2.utilization               2.1                       # Layer utilization (%)
system.membus.respLayer1.occupancy       2947109406250                       # Layer occupancy (ticks)
system.membus.respLayer1.utilization              3.5                       # Layer utilization (%)
system.membus.respLayer2.occupancy       759814190500                       # Layer occupancy (ticks)
system.membus.respLayer2.utilization              0.9                       # Layer utilization (%)
system.membus.power_state.pwrStateResidencyTicks::UNDEFINED 84834185030000                       # Cumulative time (in ticks) in various power states
system.voltage_domain.voltage                       1                       # Voltage in Volts
system.clk_domain.clock                          1000                       # Clock period in ticks
system.cpu_voltage_domain.voltage                   1                       # Voltage in Volts
system.mem_ctrls.bytes_read::.cpu.inst    10389009448                       # Number of bytes read from this memory
system.mem_ctrls.bytes_read::.cpu.data     1993529267                       # Number of bytes read from this memory
system.mem_ctrls.bytes_read::total        12382538715                       # Number of bytes read from this memory
system.mem_ctrls.bytes_inst_read::.cpu.inst  10389009448                       # Number of instructions bytes read from this memory
system.mem_ctrls.bytes_inst_read::total   10389009448                       # Number of instructions bytes read from this memory
system.mem_ctrls.bytes_written::.cpu.data    698235973                       # Number of bytes written to this memory
system.mem_ctrls.bytes_written::total       698235973                       # Number of bytes written to this memory
system.mem_ctrls.num_reads::.cpu.inst      1298626181                       # Number of read requests responded to by this memory
system.mem_ctrls.num_reads::.cpu.data       284823078                       # Number of read requests responded to by this memory
system.mem_ctrls.num_reads::total          1583449259                       # Number of read requests responded to by this memory
system.mem_ctrls.num_writes::.cpu.data       98346058                       # Number of write requests responded to by this memory
system.mem_ctrls.num_writes::total           98346058                       # Number of write requests responded to by this memory
system.mem_ctrls.bw_read::.cpu.inst         122462536                       # Total read bandwidth from this memory (bytes/s)
system.mem_ctrls.bw_read::.cpu.data          23499127                       # Total read bandwidth from this memory (bytes/s)
system.mem_ctrls.bw_read::total             145961663                       # Total read bandwidth from this memory (bytes/s)
system.mem_ctrls.bw_inst_read::.cpu.inst    122462536                       # Instruction read bandwidth from this memory (bytes/s)
system.mem_ctrls.bw_inst_read::total        122462536                       # Instruction read bandwidth from this memory (bytes/s)
system.mem_ctrls.bw_write::.cpu.data          8230597                       # Write bandwidth from this memory (bytes/s)
system.mem_ctrls.bw_write::total              8230597                       # Write bandwidth from this memory (bytes/s)
system.mem_ctrls.bw_total::.cpu.inst        122462536                       # Total bandwidth to/from this memory (bytes/s)
system.mem_ctrls.bw_total::.cpu.data         31729724                       # Total bandwidth to/from this memory (bytes/s)
system.mem_ctrls.bw_total::total            154192260                       # Total bandwidth to/from this memory (bytes/s)
system.mem_ctrls.avgPriority_.cpu.inst::samples 1298626181.00                       # Average QoS priority value for accepted requests
system.mem_ctrls.avgPriority_.cpu.data::samples 285390155.00                       # Average QoS priority value for accepted requests
system.mem_ctrls.priorityMinLatency      0.000000018750                       # per QoS priority minimum request to response latency (s)
system.mem_ctrls.priorityMaxLatency      0.017689893750                       # per QoS priority maximum request to response latency (s)
system.mem_ctrls.numReadWriteTurnArounds      1066495                       # Number of turnarounds from READ to WRITE
system.mem_ctrls.numWriteReadTurnArounds      1066495                       # Number of turnarounds from WRITE to READ
system.mem_ctrls.numStayReadState          3252957709                       # Number of times bus staying in READ state
system.mem_ctrls.numStayWriteState           16012630                       # Number of times bus staying in WRITE state
system.mem_ctrls.readReqs                  1583449260                       # Number of read requests accepted
system.mem_ctrls.writeReqs                   98346058                       # Number of write requests accepted
system.mem_ctrls.readBursts                1583449260                       # Number of DRAM read bursts, including those serviced by the write queue
system.mem_ctrls.writeBursts                 98346058                       # Number of DRAM write bursts, including those merged in the write queue
system.mem_ctrls.servicedByWrQ               16497784                       # Number of DRAM read bursts serviced by the write queue
system.mem_ctrls.mergedWrBursts              81281198                       # Number of DRAM write bursts merged with an existing one
system.mem_ctrls.neitherReadNorWriteReqs            0                       # Number of requests that are neither read nor write
system.mem_ctrls.perBankRdBursts::0         248606490                       # Per bank write bursts
system.mem_ctrls.perBankRdBursts::1         483072620                       # Per bank write bursts
system.mem_ctrls.perBankRdBursts::2          69078756                       # Per bank write bursts
system.mem_ctrls.perBankRdBursts::3         287592478                       # Per bank write bursts
system.mem_ctrls.perBankRdBursts::4          13029998                       # Per bank write bursts
system.mem_ctrls.perBankRdBursts::5         100709760                       # Per bank write bursts
system.mem_ctrls.perBankRdBursts::6         102057912                       # Per bank write bursts
system.mem_ctrls.perBankRdBursts::7         129316193                       # Per bank write bursts
system.mem_ctrls.perBankRdBursts::8          14342712                       # Per bank write bursts
system.mem_ctrls.perBankRdBursts::9          10090726                       # Per bank write bursts
system.mem_ctrls.perBankRdBursts::10         28022420                       # Per bank write bursts
system.mem_ctrls.perBankRdBursts::11          7715698                       # Per bank write bursts
system.mem_ctrls.perBankRdBursts::12          7722374                       # Per bank write bursts
system.mem_ctrls.perBankRdBursts::13          7729447                       # Per bank write bursts
system.mem_ctrls.perBankRdBursts::14          9740298                       # Per bank write bursts
system.mem_ctrls.perBankRdBursts::15         48123594                       # Per bank write bursts
system.mem_ctrls.perBankWrBursts::0            661285                       # Per bank write bursts
system.mem_ctrls.perBankWrBursts::1            660576                       # Per bank write bursts
system.mem_ctrls.perBankWrBursts::2           2241654                       # Per bank write bursts
system.mem_ctrls.perBankWrBursts::3           4025324                       # Per bank write bursts
system.mem_ctrls.perBankWrBursts::4            716844                       # Per bank write bursts
system.mem_ctrls.perBankWrBursts::5            643697                       # Per bank write bursts
system.mem_ctrls.perBankWrBursts::6           2203314                       # Per bank write bursts
system.mem_ctrls.perBankWrBursts::7            617103                       # Per bank write bursts
system.mem_ctrls.perBankWrBursts::8            629259                       # Per bank write bursts
system.mem_ctrls.perBankWrBursts::9            639384                       # Per bank write bursts
system.mem_ctrls.perBankWrBursts::10           688703                       # Per bank write bursts
system.mem_ctrls.perBankWrBursts::11           643991                       # Per bank write bursts
system.mem_ctrls.perBankWrBursts::12           652056                       # Per bank write bursts
system.mem_ctrls.perBankWrBursts::13           659702                       # Per bank write bursts
system.mem_ctrls.perBankWrBursts::14           723410                       # Per bank write bursts
system.mem_ctrls.perBankWrBursts::15           658540                       # Per bank write bursts
system.mem_ctrls.avgRdQLen                       1.00                       # Average read queue length when enqueuing
system.mem_ctrls.avgWrQLen                      26.87                       # Average write queue length when enqueuing
system.mem_ctrls.totQLat                 5610495694000                       # Total ticks spent queuing
system.mem_ctrls.totBusLat               7834757380000                       # Total ticks spent in databus transfers
system.mem_ctrls.totMemAccLat            34990835869000                       # Total ticks spent from burst creation until serviced by the DRAM
system.mem_ctrls.avgQLat                      3580.52                       # Average queueing delay per DRAM burst
system.mem_ctrls.avgBusLat                    5000.00                       # Average bus latency per DRAM burst
system.mem_ctrls.avgMemAccLat                22330.52                       # Average memory access latency per DRAM burst
system.mem_ctrls.numRdRetry                         0                       # Number of times read queue was full causing retry
system.mem_ctrls.numWrRetry                         0                       # Number of times write queue was full causing retry
system.mem_ctrls.readRowHits               1395142826                       # Number of row buffer hits during reads
system.mem_ctrls.writeRowHits                14035646                       # Number of row buffer hits during writes
system.mem_ctrls.readRowHitRate                 89.04                       # Row buffer hit rate for reads
system.mem_ctrls.writeRowHitRate                82.25                       # Row buffer hit rate for writes
system.mem_ctrls.readPktSize::0              16194944                       # Read request sizes (log2)
system.mem_ctrls.readPktSize::1                 85635                       # Read request sizes (log2)
system.mem_ctrls.readPktSize::2              42775273                       # Read request sizes (log2)
system.mem_ctrls.readPktSize::3            1524393408                       # Read request sizes (log2)
system.mem_ctrls.readPktSize::4                     0                       # Read request sizes (log2)
system.mem_ctrls.readPktSize::5                     0                       # Read request sizes (log2)
system.mem_ctrls.readPktSize::6                     0                       # Read request sizes (log2)
system.mem_ctrls.writePktSize::0              4439636                       # Write request sizes (log2)
system.mem_ctrls.writePktSize::1               282994                       # Write request sizes (log2)
system.mem_ctrls.writePktSize::2             13939268                       # Write request sizes (log2)
system.mem_ctrls.writePktSize::3             79684160                       # Write request sizes (log2)
system.mem_ctrls.writePktSize::4                    0                       # Write request sizes (log2)
system.mem_ctrls.writePktSize::5                    0                       # Write request sizes (log2)
system.mem_ctrls.writePktSize::6                    0                       # Write request sizes (log2)
system.mem_ctrls.rdQLenPdf::0              1566910097                       # What read queue length does an incoming req see
system.mem_ctrls.rdQLenPdf::1                   41379                       # What read queue length does an incoming req see
system.mem_ctrls.rdQLenPdf::2                       0                       # What read queue length does an incoming req see
system.mem_ctrls.rdQLenPdf::3                       0                       # What read queue length does an incoming req see
system.mem_ctrls.rdQLenPdf::4                       0                       # What read queue length does an incoming req see
system.mem_ctrls.rdQLenPdf::5                       0                       # What read queue length does an incoming req see
system.mem_ctrls.rdQLenPdf::6                       0                       # What read queue length does an incoming req see
system.mem_ctrls.rdQLenPdf::7                       0                       # What read queue length does an incoming req see
system.mem_ctrls.rdQLenPdf::8                       0                       # What read queue length does an incoming req see
system.mem_ctrls.rdQLenPdf::9                       0                       # What read queue length does an incoming req see
system.mem_ctrls.rdQLenPdf::10                      0                       # What read queue length does an incoming req see
system.mem_ctrls.rdQLenPdf::11                      0                       # What read queue length does an incoming req see
system.mem_ctrls.rdQLenPdf::12                      0                       # What read queue length does an incoming req see
system.mem_ctrls.rdQLenPdf::13                      0                       # What read queue length does an incoming req see
system.mem_ctrls.rdQLenPdf::14                      0                       # What read queue length does an incoming req see
system.mem_ctrls.rdQLenPdf::15                      0                       # What read queue length does an incoming req see
system.mem_ctrls.rdQLenPdf::16                      0                       # What read queue length does an incoming req see
system.mem_ctrls.rdQLenPdf::17                      0                       # What read queue length does an incoming req see
system.mem_ctrls.rdQLenPdf::18                      0                       # What read queue length does an incoming req see
system.mem_ctrls.rdQLenPdf::19                      0                       # What read queue length does an incoming req see
system.mem_ctrls.rdQLenPdf::20                      0                       # What read queue length does an incoming req see
system.mem_ctrls.rdQLenPdf::21                      0                       # What read queue length does an incoming req see
system.mem_ctrls.rdQLenPdf::22                      0                       # What read queue length does an incoming req see
system.mem_ctrls.rdQLenPdf::23                      0                       # What read queue length does an incoming req see
system.mem_ctrls.rdQLenPdf::24                      0                       # What read queue length does an incoming req see
system.mem_ctrls.rdQLenPdf::25                      0                       # What read queue length does an incoming req see
system.mem_ctrls.rdQLenPdf::26                      0                       # What read queue length does an incoming req see
system.mem_ctrls.rdQLenPdf::27                      0                       # What read queue length does an incoming req see
system.mem_ctrls.rdQLenPdf::28                      0                       # What read queue length does an incoming req see
system.mem_ctrls.rdQLenPdf::29                      0                       # What read queue length does an incoming req see
system.mem_ctrls.rdQLenPdf::30                      0                       # What read queue length does an incoming req see
system.mem_ctrls.rdQLenPdf::31                      0                       # What read queue length does an incoming req see
system.mem_ctrls.wrQLenPdf::0                       1                       # What write queue length does an incoming req see
system.mem_ctrls.wrQLenPdf::1                       1                       # What write queue length does an incoming req see
system.mem_ctrls.wrQLenPdf::2                       1                       # What write queue length does an incoming req see
system.mem_ctrls.wrQLenPdf::3                       1                       # What write queue length does an incoming req see
system.mem_ctrls.wrQLenPdf::4                       1                       # What write queue length does an incoming req see
system.mem_ctrls.wrQLenPdf::5                       1                       # What write queue length does an incoming req see
system.mem_ctrls.wrQLenPdf::6                       1                       # What write queue length does an incoming req see
system.mem_ctrls.wrQLenPdf::7                       1                       # What write queue length does an incoming req see
system.mem_ctrls.wrQLenPdf::8                       1                       # What write queue length does an incoming req see
system.mem_ctrls.wrQLenPdf::9                       1                       # What write queue length does an incoming req see
system.mem_ctrls.wrQLenPdf::10                      1                       # What write queue length does an incoming req see
system.mem_ctrls.wrQLenPdf::11                      1                       # What write queue length does an incoming req see
system.mem_ctrls.wrQLenPdf::12                      1                       # What write queue length does an incoming req see
system.mem_ctrls.wrQLenPdf::13                      1                       # What write queue length does an incoming req see
system.mem_ctrls.wrQLenPdf::14                      1                       # What write queue length does an incoming req see
system.mem_ctrls.wrQLenPdf::15                    384                       # What write queue length does an incoming req see
system.mem_ctrls.wrQLenPdf::16                    409                       # What write queue length does an incoming req see
system.mem_ctrls.wrQLenPdf::17                1066476                       # What write queue length does an incoming req see
system.mem_ctrls.wrQLenPdf::18                1066496                       # What write queue length does an incoming req see
system.mem_ctrls.wrQLenPdf::19                1066592                       # What write queue length does an incoming req see
system.mem_ctrls.wrQLenPdf::20                1066540                       # What write queue length does an incoming req see
system.mem_ctrls.wrQLenPdf::21                1066503                       # What write queue length does an incoming req see
system.mem_ctrls.wrQLenPdf::22                1066495                       # What write queue length does an incoming req see
system.mem_ctrls.wrQLenPdf::23                1066495                       # What write queue length does an incoming req see
system.mem_ctrls.wrQLenPdf::24                1066495                       # What write queue length does an incoming req see
system.mem_ctrls.wrQLenPdf::25                1066495                       # What write queue length does an incoming req see
system.mem_ctrls.wrQLenPdf::26                1066495                       # What write queue length does an incoming req see
system.mem_ctrls.wrQLenPdf::27                1066495                       # What write queue length does an incoming req see
system.mem_ctrls.wrQLenPdf::28                1066495                       # What write queue length does an incoming req see
system.mem_ctrls.wrQLenPdf::29                1066495                       # What write queue length does an incoming req see
system.mem_ctrls.wrQLenPdf::30                1066495                       # What write queue length does an incoming req see
system.mem_ctrls.wrQLenPdf::31                1066495                       # What write queue length does an incoming req see
system.mem_ctrls.wrQLenPdf::32                1066495                       # What write queue length does an incoming req see
system.mem_ctrls.wrQLenPdf::33                      0                       # What write queue length does an incoming req see
system.mem_ctrls.wrQLenPdf::34                      0                       # What write queue length does an incoming req see
system.mem_ctrls.wrQLenPdf::35                      0                       # What write queue length does an incoming req see
system.mem_ctrls.wrQLenPdf::36                      0                       # What write queue length does an incoming req see
system.mem_ctrls.wrQLenPdf::37                      0                       # What write queue length does an incoming req see
system.mem_ctrls.wrQLenPdf::38                      0                       # What write queue length does an incoming req see
system.mem_ctrls.wrQLenPdf::39                      0                       # What write queue length does an incoming req see
system.mem_ctrls.wrQLenPdf::40                      0                       # What write queue length does an incoming req see
system.mem_ctrls.wrQLenPdf::41                      0                       # What write queue length does an incoming req see
system.mem_ctrls.wrQLenPdf::42                      0                       # What write queue length does an incoming req see
system.mem_ctrls.wrQLenPdf::43                      0                       # What write queue length does an incoming req see
system.mem_ctrls.wrQLenPdf::44                      0                       # What write queue length does an incoming req see
system.mem_ctrls.wrQLenPdf::45                      0                       # What write queue length does an incoming req see
system.mem_ctrls.wrQLenPdf::46                      0                       # What write queue length does an incoming req see
system.mem_ctrls.wrQLenPdf::47                      0                       # What write queue length does an incoming req see
system.mem_ctrls.wrQLenPdf::48                      0                       # What write queue length does an incoming req see
system.mem_ctrls.wrQLenPdf::49                      0                       # What write queue length does an incoming req see
system.mem_ctrls.wrQLenPdf::50                      0                       # What write queue length does an incoming req see
system.mem_ctrls.wrQLenPdf::51                      0                       # What write queue length does an incoming req see
system.mem_ctrls.wrQLenPdf::52                      0                       # What write queue length does an incoming req see
system.mem_ctrls.wrQLenPdf::53                      0                       # What write queue length does an incoming req see
system.mem_ctrls.wrQLenPdf::54                      0                       # What write queue length does an incoming req see
system.mem_ctrls.wrQLenPdf::55                      0                       # What write queue length does an incoming req see
system.mem_ctrls.wrQLenPdf::56                      0                       # What write queue length does an incoming req see
system.mem_ctrls.wrQLenPdf::57                      0                       # What write queue length does an incoming req see
system.mem_ctrls.wrQLenPdf::58                      0                       # What write queue length does an incoming req see
system.mem_ctrls.wrQLenPdf::59                      0                       # What write queue length does an incoming req see
system.mem_ctrls.wrQLenPdf::60                      0                       # What write queue length does an incoming req see
system.mem_ctrls.wrQLenPdf::61                      0                       # What write queue length does an incoming req see
system.mem_ctrls.wrQLenPdf::62                      0                       # What write queue length does an incoming req see
system.mem_ctrls.wrQLenPdf::63                      0                       # What write queue length does an incoming req see
system.mem_ctrls.bytesPerActivate::samples    174837843                       # Bytes accessed per row activation
system.mem_ctrls.bytesPerActivate::mean    579.834673                       # Bytes accessed per row activation
system.mem_ctrls.bytesPerActivate::gmean   356.082542                       # Bytes accessed per row activation
system.mem_ctrls.bytesPerActivate::stdev   424.449785                       # Bytes accessed per row activation
system.mem_ctrls.bytesPerActivate::0-127     42044154     24.05%     24.05% # Bytes accessed per row activation
system.mem_ctrls.bytesPerActivate::128-255     16756407      9.58%     33.63% # Bytes accessed per row activation
system.mem_ctrls.bytesPerActivate::256-383     17903286     10.24%     43.87% # Bytes accessed per row activation
system.mem_ctrls.bytesPerActivate::384-511      6862326      3.92%     47.80% # Bytes accessed per row activation
system.mem_ctrls.bytesPerActivate::512-639      4563895      2.61%     50.41% # Bytes accessed per row activation
system.mem_ctrls.bytesPerActivate::640-767      4539390      2.60%     53.00% # Bytes accessed per row activation
system.mem_ctrls.bytesPerActivate::768-895      4066050      2.33%     55.33% # Bytes accessed per row activation
system.mem_ctrls.bytesPerActivate::896-1023      3672557      2.10%     57.43% # Bytes accessed per row activation
system.mem_ctrls.bytesPerActivate::1024-1151     74429778     42.57%    100.00% # Bytes accessed per row activation
system.mem_ctrls.bytesPerActivate::total    174837843                       # Bytes accessed per row activation
system.mem_ctrls.rdPerTurnAround::samples      1066495                       # Reads before turning the bus around for writes
system.mem_ctrls.rdPerTurnAround::mean    1469.253435                       # Reads before turning the bus around for writes
system.mem_ctrls.rdPerTurnAround::stdev   2256.425770                       # Reads before turning the bus around for writes
system.mem_ctrls.rdPerTurnAround::0-4095       976289     91.54%     91.54% # Reads before turning the bus around for writes
system.mem_ctrls.rdPerTurnAround::4096-8191        60522      5.67%     97.22% # Reads before turning the bus around for writes
system.mem_ctrls.rdPerTurnAround::8192-12287        19574      1.84%     99.05% # Reads before turning the bus around for writes
system.mem_ctrls.rdPerTurnAround::12288-16383         9427      0.88%     99.94% # Reads before turning the bus around for writes
system.mem_ctrls.rdPerTurnAround::16384-20479          679      0.06%    100.00% # Reads before turning the bus around for writes
system.mem_ctrls.rdPerTurnAround::24576-28671            1      0.00%    100.00% # Reads before turning the bus around for writes
system.mem_ctrls.rdPerTurnAround::28672-32767            1      0.00%    100.00% # Reads before turning the bus around for writes
system.mem_ctrls.rdPerTurnAround::49152-53247            1      0.00%    100.00% # Reads before turning the bus around for writes
system.mem_ctrls.rdPerTurnAround::90112-94207            1      0.00%    100.00% # Reads before turning the bus around for writes
system.mem_ctrls.rdPerTurnAround::total       1066495                       # Reads before turning the bus around for writes
system.mem_ctrls.wrPerTurnAround::samples      1066495                       # Writes before turning the bus around for reads
system.mem_ctrls.wrPerTurnAround::mean      16.000865                       # Writes before turning the bus around for reads
system.mem_ctrls.wrPerTurnAround::gmean     16.000809                       # Writes before turning the bus around for reads
system.mem_ctrls.wrPerTurnAround::stdev      0.044302                       # Writes before turning the bus around for reads
system.mem_ctrls.wrPerTurnAround::16          1066068     99.96%     99.96% # Writes before turning the bus around for reads
system.mem_ctrls.wrPerTurnAround::17               23      0.00%     99.96% # Writes before turning the bus around for reads
system.mem_ctrls.wrPerTurnAround::18              313      0.03%     99.99% # Writes before turning the bus around for reads
system.mem_ctrls.wrPerTurnAround::19               91      0.01%    100.00% # Writes before turning the bus around for reads
system.mem_ctrls.wrPerTurnAround::total       1066495                       # Writes before turning the bus around for reads
system.mem_ctrls.bytesReadDRAM           100284894464                       # Total number of bytes read from DRAM
system.mem_ctrls.bytesReadWrQ              1055858176                       # Total number of bytes read from write queue
system.mem_ctrls.bytesWritten              1092149888                       # Total number of bytes written to DRAM
system.mem_ctrls.bytesReadSys             12382538723                       # Total read bytes from the system interface side
system.mem_ctrls.bytesWrittenSys            698235973                       # Total written bytes from the system interface side
system.mem_ctrls.avgRdBW                      1182.13                       # Average DRAM read bandwidth in MiByte/s
system.mem_ctrls.avgWrBW                        12.87                       # Average achieved write bandwidth in MiByte/s
system.mem_ctrls.avgRdBWSys                    145.96                       # Average system read bandwidth in MiByte/s
system.mem_ctrls.avgWrBWSys                      8.23                       # Average system write bandwidth in MiByte/s
system.mem_ctrls.peakBW                      12800.00                       # Theoretical peak bandwidth in MiByte/s
system.mem_ctrls.busUtil                         9.34                       # Data bus utilization in percentage
system.mem_ctrls.busUtilRead                     9.24                       # Data bus utilization in percentage for reads
system.mem_ctrls.busUtilWrite                    0.10                       # Data bus utilization in percentage for writes
system.mem_ctrls.totGap                  84834184953000                       # Total gap between requests
system.mem_ctrls.avgGap                      50442.63                       # Average gap between requests
system.mem_ctrls.masterReadBytes::.cpu.inst  10389009448                       # Per-master bytes read from memory
system.mem_ctrls.masterReadBytes::.cpu.data   1881201694                       # Per-master bytes read from memory
system.mem_ctrls.masterWriteBytes::.cpu.data    133298293                       # Per-master bytes write to memory
system.mem_ctrls.masterReadRate::.cpu.inst 122462536.114729270339                       # Per-master bytes read from memory rate (Bytes/sec)
system.mem_ctrls.masterReadRate::.cpu.data 22175042.918544553220                       # Per-master bytes read from memory rate (Bytes/sec)
system.mem_ctrls.masterWriteRate::.cpu.data 1571280.409576181788                       # Per-master bytes write to memory rate (Bytes/sec)
system.mem_ctrls.masterReadAccesses::.cpu.inst   1298626181                       # Per-master read serviced memory accesses
system.mem_ctrls.masterReadAccesses::.cpu.data    284823079                       # Per-master read serviced memory accesses
system.mem_ctrls.masterWriteAccesses::.cpu.data     98346058                       # Per-master write serviced memory accesses
system.mem_ctrls.masterReadTotalLat::.cpu.inst 28140999691750                       # Per-master read total memory access latency
system.mem_ctrls.masterReadTotalLat::.cpu.data 6849836177250                       # Per-master read total memory access latency
system.mem_ctrls.masterWriteTotalLat::.cpu.data 2236588353343750                       # Per-master write total memory access latency
system.mem_ctrls.masterReadAvgLat::.cpu.inst     21669.82                       # Per-master read average memory access latency
system.mem_ctrls.masterReadAvgLat::.cpu.data     24049.44                       # Per-master read average memory access latency
system.mem_ctrls.masterWriteAvgLat::.cpu.data  22742023.41                       # Per-master write average memory access latency
system.mem_ctrls.pageHitRate                    88.96                       # Row buffer hit rate, read and write combined
system.mem_ctrls.rank1.actEnergy         222937082340                       # Energy for activate commands per rank (pJ)
system.mem_ctrls.rank1.preEnergy         118493865600                       # Energy for precharge commands per rank (pJ)
system.mem_ctrls.rank1.readEnergy        953099100660                       # Energy for read commands per rank (pJ)
system.mem_ctrls.rank1.writeEnergy        27640134900                       # Energy for write commands per rank (pJ)
system.mem_ctrls.rank1.refreshEnergy     6696738821760.000977                       # Energy for refresh commands per rank (pJ)
system.mem_ctrls.rank1.actBackEnergy     20329500350730                       # Energy for active background per rank (pJ)
system.mem_ctrls.rank1.preBackEnergy     15456747808800                       # Energy for precharge background per rank (pJ)
system.mem_ctrls.rank1.actPowerDownEnergy            0                       # Energy for active power-down per rank (pJ)
system.mem_ctrls.rank1.prePowerDownEnergy            0                       # Energy for precharge power-down per rank (pJ)
system.mem_ctrls.rank1.selfRefreshEnergy            0                       # Energy for self refresh per rank (pJ)
system.mem_ctrls.rank1.totalEnergy       43805157164790                       # Total energy per rank (pJ)
system.mem_ctrls.rank1.averagePower        516.362091                       # Core power per rank (mW)
system.mem_ctrls.rank1.totalIdleTime                0                       # Total Idle time Per DRAM Rank
system.mem_ctrls.rank1.memoryStateTime::IDLE 39962574836500                       # Time in different power states
system.mem_ctrls.rank1.memoryStateTime::REF 2832799840000                       # Time in different power states
system.mem_ctrls.rank1.memoryStateTime::SREF            0                       # Time in different power states
system.mem_ctrls.rank1.memoryStateTime::PRE_PDN            0                       # Time in different power states
system.mem_ctrls.rank1.memoryStateTime::ACT 42038810353500                       # Time in different power states
system.mem_ctrls.rank1.memoryStateTime::ACT_PDN            0                       # Time in different power states
system.mem_ctrls.rank0.actEnergy         1025405138100                       # Energy for activate commands per rank (pJ)
system.mem_ctrls.rank0.preEnergy         545015748585                       # Energy for precharge commands per rank (pJ)
system.mem_ctrls.rank0.readEnergy        10234934437980                       # Energy for read commands per rank (pJ)
system.mem_ctrls.rank0.writeEnergy        61438340340                       # Energy for write commands per rank (pJ)
system.mem_ctrls.rank0.refreshEnergy     6696738821760.000977                       # Energy for refresh commands per rank (pJ)
system.mem_ctrls.rank0.actBackEnergy     38231541660420                       # Energy for active background per rank (pJ)
system.mem_ctrls.rank0.preBackEnergy     381344600640                       # Energy for precharge background per rank (pJ)
system.mem_ctrls.rank0.actPowerDownEnergy            0                       # Energy for active power-down per rank (pJ)
system.mem_ctrls.rank0.prePowerDownEnergy            0                       # Energy for precharge power-down per rank (pJ)
system.mem_ctrls.rank0.selfRefreshEnergy            0                       # Energy for self refresh per rank (pJ)
system.mem_ctrls.rank0.totalEnergy       57176418747825                       # Total energy per rank (pJ)
system.mem_ctrls.rank0.averagePower        673.978523                       # Core power per rank (mW)
system.mem_ctrls.rank0.totalIdleTime                0                       # Total Idle time Per DRAM Rank
system.mem_ctrls.rank0.memoryStateTime::IDLE 560436441000                       # Time in different power states
system.mem_ctrls.rank0.memoryStateTime::REF 2832799840000                       # Time in different power states
system.mem_ctrls.rank0.memoryStateTime::SREF            0                       # Time in different power states
system.mem_ctrls.rank0.memoryStateTime::PRE_PDN            0                       # Time in different power states
system.mem_ctrls.rank0.memoryStateTime::ACT 81440948749000                       # Time in different power states
system.mem_ctrls.rank0.memoryStateTime::ACT_PDN            0                       # Time in different power states
system.mem_ctrls.power_state.pwrStateResidencyTicks::UNDEFINED 84834185030000                       # Cumulative time (in ticks) in various power states
system.cpu_clk_domain.clock                       500                       # Clock period in ticks
system.cpu.dtb.walker.power_state.pwrStateResidencyTicks::UNDEFINED 84834185030000                       # Cumulative time (in ticks) in various power states
system.cpu.interrupts.clk_domain.clock           8000                       # Clock period in ticks
system.cpu.itb.walker.power_state.pwrStateResidencyTicks::UNDEFINED 84834185030000                       # Cumulative time (in ticks) in various power states
system.cpu.power_state.numTransitions               1                       # Number of power state transitions
system.cpu.power_state.pwrStateResidencyTicks::ON 84834185030000                       # Cumulative time (in ticks) in various power states

---------- End Simulation Statistics   ----------
