
---------- Begin Simulation Statistics ----------
final_tick                               696315662000                       # Number of ticks from beginning of simulation (restored from checkpoints and never reset)
host_inst_rate                                  96677                       # Simulator instruction rate (inst/s)
host_mem_usage                                 895320                       # Number of bytes of host memory used
host_op_rate                                   196313                       # Simulator op (including micro ops) rate (op/s)
host_seconds                                    87.19                       # Real time elapsed on the host
host_tick_rate                             7986469712                       # Simulator tick rate (ticks/s)
sim_freq                                 1000000000000                       # Frequency of simulated ticks
sim_insts                                     8428946                       # Number of instructions simulated
sim_ops                                      17115884                       # Number of ops (including micro ops) simulated
sim_seconds                                  0.696316                       # Number of seconds simulated
sim_ticks                                696315662000                       # Number of ticks simulated
system.cpu.Branches                           2174907                       # Number of branches fetched
system.cpu.committedInsts                     8428946                       # Number of instructions committed
system.cpu.committedOps                      17115884                       # Number of ops (including micro ops) committed
system.cpu.dtb.rdAccesses                     1701907                       # TLB accesses on read requests
system.cpu.dtb.rdMisses                           812                       # TLB misses on read requests
system.cpu.dtb.wrAccesses                      826832                       # TLB accesses on write requests
system.cpu.dtb.wrMisses                           442                       # TLB misses on write requests
system.cpu.idle_fraction                     0.000000                       # Percentage of idle cycles
system.cpu.itb.rdAccesses                           0                       # TLB accesses on read requests
system.cpu.itb.rdMisses                             0                       # TLB misses on read requests
system.cpu.itb.wrAccesses                    11047476                       # TLB accesses on write requests
system.cpu.itb.wrMisses                           405                       # TLB misses on write requests
system.cpu.not_idle_fraction                 1.000000                       # Percentage of non-idle cycles
system.cpu.numCycles                       1392631324                       # number of cpu cycles simulated
system.cpu.numWorkItemsCompleted                    0                       # number of work items this cpu completed
system.cpu.numWorkItemsStarted                      0                       # number of work items this cpu started
system.cpu.num_busy_cycles               1392631323.998000                       # Number of busy cycles
system.cpu.num_cc_register_reads             11531204                       # number of times the CC registers were read
system.cpu.num_cc_register_writes             5629962                       # number of times the CC registers were written
system.cpu.num_conditional_control_insts      1649173                       # number of instructions that are conditional controls
system.cpu.num_fp_alu_accesses                 107089                       # Number of float alu accesses
system.cpu.num_fp_insts                        107089                       # number of float instructions
system.cpu.num_fp_register_reads               152299                       # number of times the floating registers were read
system.cpu.num_fp_register_writes               61066                       # number of times the floating registers were written
system.cpu.num_func_calls                      390634                       # number of times a function call or return occured
system.cpu.num_idle_cycles                   0.002000                       # Number of idle cycles
system.cpu.num_int_alu_accesses              16960239                       # Number of integer alu accesses
system.cpu.num_int_insts                     16960239                       # number of integer instructions
system.cpu.num_int_register_reads            30836987                       # number of times the integer registers were read
system.cpu.num_int_register_writes           14170237                       # number of times the integer registers were written
system.cpu.num_load_insts                     1701811                       # Number of load instructions
system.cpu.num_mem_refs                       2528546                       # number of memory refs
system.cpu.num_store_insts                     826735                       # Number of store instructions
system.cpu.num_vec_alu_accesses                     0                       # Number of vector alu accesses
system.cpu.num_vec_insts                            0                       # number of vector instructions
system.cpu.num_vec_register_reads                   0                       # number of times the vector registers were read
system.cpu.num_vec_register_writes                  0                       # number of times the vector registers were written
system.cpu.op_class::No_OpClass                100846      0.59%      0.59% # Class of executed instruction
system.cpu.op_class::IntAlu                  14341542     83.79%     84.38% # Class of executed instruction
system.cpu.op_class::IntMult                    22860      0.13%     84.51% # Class of executed instruction
system.cpu.op_class::IntDiv                     68264      0.40%     84.91% # Class of executed instruction
system.cpu.op_class::FloatAdd                    2162      0.01%     84.92% # Class of executed instruction
system.cpu.op_class::FloatCmp                       0      0.00%     84.92% # Class of executed instruction
system.cpu.op_class::FloatCvt                     384      0.00%     84.93% # Class of executed instruction
system.cpu.op_class::FloatMult                      0      0.00%     84.93% # Class of executed instruction
system.cpu.op_class::FloatMultAcc                   0      0.00%     84.93% # Class of executed instruction
system.cpu.op_class::FloatDiv                       0      0.00%     84.93% # Class of executed instruction
system.cpu.op_class::FloatMisc                      0      0.00%     84.93% # Class of executed instruction
system.cpu.op_class::FloatSqrt                      0      0.00%     84.93% # Class of executed instruction
system.cpu.op_class::SimdAdd                     4938      0.03%     84.95% # Class of executed instruction
system.cpu.op_class::SimdAddAcc                     0      0.00%     84.95% # Class of executed instruction
system.cpu.op_class::SimdAlu                    10854      0.06%     85.02% # Class of executed instruction
system.cpu.op_class::SimdCmp                        0      0.00%     85.02% # Class of executed instruction
system.cpu.op_class::SimdCvt                    12962      0.08%     85.09% # Class of executed instruction
system.cpu.op_class::SimdMisc                   20198      0.12%     85.21% # Class of executed instruction
system.cpu.op_class::SimdMult                       0      0.00%     85.21% # Class of executed instruction
system.cpu.op_class::SimdMultAcc                    0      0.00%     85.21% # Class of executed instruction
system.cpu.op_class::SimdShift                   2576      0.02%     85.23% # Class of executed instruction
system.cpu.op_class::SimdShiftAcc                   0      0.00%     85.23% # Class of executed instruction
system.cpu.op_class::SimdDiv                        0      0.00%     85.23% # Class of executed instruction
system.cpu.op_class::SimdSqrt                       0      0.00%     85.23% # Class of executed instruction
system.cpu.op_class::SimdFloatAdd                   0      0.00%     85.23% # Class of executed instruction
system.cpu.op_class::SimdFloatAlu                   0      0.00%     85.23% # Class of executed instruction
system.cpu.op_class::SimdFloatCmp                   0      0.00%     85.23% # Class of executed instruction
system.cpu.op_class::SimdFloatCvt                   0      0.00%     85.23% # Class of executed instruction
system.cpu.op_class::SimdFloatDiv                   0      0.00%     85.23% # Class of executed instruction
system.cpu.op_class::SimdFloatMisc                  0      0.00%     85.23% # Class of executed instruction
system.cpu.op_class::SimdFloatMult                  0      0.00%     85.23% # Class of executed instruction
system.cpu.op_class::SimdFloatMultAcc               0      0.00%     85.23% # Class of executed instruction
system.cpu.op_class::SimdFloatSqrt                  0      0.00%     85.23% # Class of executed instruction
system.cpu.op_class::SimdReduceAdd                  0      0.00%     85.23% # Class of executed instruction
system.cpu.op_class::SimdReduceAlu                  0      0.00%     85.23% # Class of executed instruction
system.cpu.op_class::SimdReduceCmp                  0      0.00%     85.23% # Class of executed instruction
system.cpu.op_class::SimdFloatReduceAdd             0      0.00%     85.23% # Class of executed instruction
system.cpu.op_class::SimdFloatReduceCmp             0      0.00%     85.23% # Class of executed instruction
system.cpu.op_class::SimdAes                        0      0.00%     85.23% # Class of executed instruction
system.cpu.op_class::SimdAesMix                     0      0.00%     85.23% # Class of executed instruction
system.cpu.op_class::SimdSha1Hash                   0      0.00%     85.23% # Class of executed instruction
system.cpu.op_class::SimdSha1Hash2                  0      0.00%     85.23% # Class of executed instruction
system.cpu.op_class::SimdSha256Hash                 0      0.00%     85.23% # Class of executed instruction
system.cpu.op_class::SimdSha256Hash2                0      0.00%     85.23% # Class of executed instruction
system.cpu.op_class::SimdShaSigma2                  0      0.00%     85.23% # Class of executed instruction
system.cpu.op_class::SimdShaSigma3                  0      0.00%     85.23% # Class of executed instruction
system.cpu.op_class::SimdPredAlu                    0      0.00%     85.23% # Class of executed instruction
system.cpu.op_class::MemRead                  1687941      9.86%     95.09% # Class of executed instruction
system.cpu.op_class::MemWrite                  789450      4.61%     99.70% # Class of executed instruction
system.cpu.op_class::FloatMemRead               13870      0.08%     99.78% # Class of executed instruction
system.cpu.op_class::FloatMemWrite              37285      0.22%    100.00% # Class of executed instruction
system.cpu.op_class::IprAccess                      0      0.00%    100.00% # Class of executed instruction
system.cpu.op_class::InstPrefetch                   0      0.00%    100.00% # Class of executed instruction
system.cpu.op_class::total                   17116132                       # Class of executed instruction
system.cpu.valuePred.lookups                 13919594                       # Number of VP lookups
system.cpu.valuePred.numCorrectPredicted      5547969                       # Number of value predictions
system.cpu.valuePred.numIncorrectPredicted       975536                       # Number of incorrect value predictions
system.cpu.valuePred.numLoadCorrectPredicted       502449                       # Number of Correct Load value predictions
system.cpu.valuePred.numLoadPredicted          662241                       # Number of Load value predictions
system.cpu.valuePred.numPredicted             6523509                       # Number of value predictions
system.cpu.valuePred.valuePredAccuracy       0.850458                       # VP Accuracy
system.cpu.valuePred.valuePredCoverage       0.398573                       # VP Coverage
system.cpu.workload.numSyscalls                    56                       # Number of system calls
system.membus.snoop_filter.hit_multi_requests            0                       # Number of requests hitting in the snoop filter with multiple (>1) holders of the requested data.
system.membus.snoop_filter.hit_multi_snoops            0                       # Number of snoops hitting in the snoop filter with multiple (>1) holders of the requested data.
system.membus.snoop_filter.hit_single_requests            0                       # Number of requests hitting in the snoop filter with a single holder of the requested data.
system.membus.snoop_filter.hit_single_snoops            0                       # Number of snoops hitting in the snoop filter with a single holder of the requested data.
system.membus.snoop_filter.tot_requests             0                       # Total number of requests made to the snoop filter.
system.membus.snoop_filter.tot_snoops               0                       # Total number of snoops made to the snoop filter.
system.membus.trans_dist::ReadReq            12749232                       # Transaction distribution
system.membus.trans_dist::ReadResp           12749232                       # Transaction distribution
system.membus.trans_dist::WriteReq             826677                       # Transaction distribution
system.membus.trans_dist::WriteResp            826677                       # Transaction distribution
system.membus.pkt_count_system.cpu.icache_port::system.mem_ctrls.port     22094836                       # Packet count per connected master and slave (bytes)
system.membus.pkt_count_system.cpu.icache_port::total     22094836                       # Packet count per connected master and slave (bytes)
system.membus.pkt_count_system.cpu.dcache_port::system.mem_ctrls.port      5056982                       # Packet count per connected master and slave (bytes)
system.membus.pkt_count_system.cpu.dcache_port::total      5056982                       # Packet count per connected master and slave (bytes)
system.membus.pkt_count::total               27151818                       # Packet count per connected master and slave (bytes)
system.membus.pkt_size_system.cpu.icache_port::system.mem_ctrls.port     88379344                       # Cumulative packet size per connected master and slave (bytes)
system.membus.pkt_size_system.cpu.icache_port::total     88379344                       # Cumulative packet size per connected master and slave (bytes)
system.membus.pkt_size_system.cpu.dcache_port::system.mem_ctrls.port     15946206                       # Cumulative packet size per connected master and slave (bytes)
system.membus.pkt_size_system.cpu.dcache_port::total     15946206                       # Cumulative packet size per connected master and slave (bytes)
system.membus.pkt_size::total               104325550                       # Cumulative packet size per connected master and slave (bytes)
system.membus.snoops                                0                       # Total snoops (count)
system.membus.snoopTraffic                          0                       # Total snoop traffic (bytes)
system.membus.snoop_fanout::samples          13575909                       # Request fanout histogram
system.membus.snoop_fanout::mean                    0                       # Request fanout histogram
system.membus.snoop_fanout::stdev                   0                       # Request fanout histogram
system.membus.snoop_fanout::underflows              0      0.00%      0.00% # Request fanout histogram
system.membus.snoop_fanout::0                13575909    100.00%    100.00% # Request fanout histogram
system.membus.snoop_fanout::1                       0      0.00%    100.00% # Request fanout histogram
system.membus.snoop_fanout::overflows               0      0.00%    100.00% # Request fanout histogram
system.membus.snoop_fanout::min_value               0                       # Request fanout histogram
system.membus.snoop_fanout::max_value               0                       # Request fanout histogram
system.membus.snoop_fanout::total            13575909                       # Request fanout histogram
system.membus.reqLayer2.occupancy         14402586000                       # Layer occupancy (ticks)
system.membus.reqLayer2.utilization               2.1                       # Layer utilization (%)
system.membus.respLayer1.occupancy        25210729000                       # Layer occupancy (ticks)
system.membus.respLayer1.utilization              3.6                       # Layer utilization (%)
system.membus.respLayer2.occupancy         4903105250                       # Layer occupancy (ticks)
system.membus.respLayer2.utilization              0.7                       # Layer utilization (%)
system.membus.power_state.pwrStateResidencyTicks::UNDEFINED 696315662000                       # Cumulative time (in ticks) in various power states
system.voltage_domain.voltage                       1                       # Voltage in Volts
system.clk_domain.clock                          1000                       # Clock period in ticks
system.cpu_voltage_domain.voltage                   1                       # Voltage in Volts
system.mem_ctrls.bytes_read::.cpu.inst       88379344                       # Number of bytes read from this memory
system.mem_ctrls.bytes_read::.cpu.data       10068283                       # Number of bytes read from this memory
system.mem_ctrls.bytes_read::total           98447627                       # Number of bytes read from this memory
system.mem_ctrls.bytes_inst_read::.cpu.inst     88379344                       # Number of instructions bytes read from this memory
system.mem_ctrls.bytes_inst_read::total      88379344                       # Number of instructions bytes read from this memory
system.mem_ctrls.bytes_written::.cpu.data      5877923                       # Number of bytes written to this memory
system.mem_ctrls.bytes_written::total         5877923                       # Number of bytes written to this memory
system.mem_ctrls.num_reads::.cpu.inst        11047418                       # Number of read requests responded to by this memory
system.mem_ctrls.num_reads::.cpu.data         1701814                       # Number of read requests responded to by this memory
system.mem_ctrls.num_reads::total            12749232                       # Number of read requests responded to by this memory
system.mem_ctrls.num_writes::.cpu.data         826677                       # Number of write requests responded to by this memory
system.mem_ctrls.num_writes::total             826677                       # Number of write requests responded to by this memory
system.mem_ctrls.bw_read::.cpu.inst         126924251                       # Total read bandwidth from this memory (bytes/s)
system.mem_ctrls.bw_read::.cpu.data          14459366                       # Total read bandwidth from this memory (bytes/s)
system.mem_ctrls.bw_read::total             141383617                       # Total read bandwidth from this memory (bytes/s)
system.mem_ctrls.bw_inst_read::.cpu.inst    126924251                       # Instruction read bandwidth from this memory (bytes/s)
system.mem_ctrls.bw_inst_read::total        126924251                       # Instruction read bandwidth from this memory (bytes/s)
system.mem_ctrls.bw_write::.cpu.data          8441463                       # Write bandwidth from this memory (bytes/s)
system.mem_ctrls.bw_write::total              8441463                       # Write bandwidth from this memory (bytes/s)
system.mem_ctrls.bw_total::.cpu.inst        126924251                       # Total bandwidth to/from this memory (bytes/s)
system.mem_ctrls.bw_total::.cpu.data         22900829                       # Total bandwidth to/from this memory (bytes/s)
system.mem_ctrls.bw_total::total            149825080                       # Total bandwidth to/from this memory (bytes/s)
system.mem_ctrls.avgPriority_.cpu.inst::samples  11047418.00                       # Average QoS priority value for accepted requests
system.mem_ctrls.avgPriority_.cpu.data::samples   1570885.00                       # Average QoS priority value for accepted requests
system.mem_ctrls.priorityMinLatency      0.000000018750                       # per QoS priority minimum request to response latency (s)
system.mem_ctrls.priorityMaxLatency      0.249706346750                       # per QoS priority maximum request to response latency (s)
system.mem_ctrls.numReadWriteTurnArounds         2442                       # Number of turnarounds from READ to WRITE
system.mem_ctrls.numWriteReadTurnArounds         2442                       # Number of turnarounds from WRITE to READ
system.mem_ctrls.numStayReadState            26160270                       # Number of times bus staying in READ state
system.mem_ctrls.numStayWriteState              36961                       # Number of times bus staying in WRITE state
system.mem_ctrls.readReqs                    12749232                       # Number of read requests accepted
system.mem_ctrls.writeReqs                     826677                       # Number of write requests accepted
system.mem_ctrls.readBursts                  12749232                       # Number of DRAM read bursts, including those serviced by the write queue
system.mem_ctrls.writeBursts                   826677                       # Number of DRAM write bursts, including those merged in the write queue
system.mem_ctrls.servicedByWrQ                 170306                       # Number of DRAM read bursts serviced by the write queue
system.mem_ctrls.mergedWrBursts                787300                       # Number of DRAM write bursts merged with an existing one
system.mem_ctrls.neitherReadNorWriteReqs            0                       # Number of requests that are neither read nor write
system.mem_ctrls.perBankRdBursts::0            470128                       # Per bank write bursts
system.mem_ctrls.perBankRdBursts::1            158648                       # Per bank write bursts
system.mem_ctrls.perBankRdBursts::2            738880                       # Per bank write bursts
system.mem_ctrls.perBankRdBursts::3           1481876                       # Per bank write bursts
system.mem_ctrls.perBankRdBursts::4            355961                       # Per bank write bursts
system.mem_ctrls.perBankRdBursts::5           2080907                       # Per bank write bursts
system.mem_ctrls.perBankRdBursts::6            399507                       # Per bank write bursts
system.mem_ctrls.perBankRdBursts::7           4796758                       # Per bank write bursts
system.mem_ctrls.perBankRdBursts::8            255099                       # Per bank write bursts
system.mem_ctrls.perBankRdBursts::9             43901                       # Per bank write bursts
system.mem_ctrls.perBankRdBursts::10            90010                       # Per bank write bursts
system.mem_ctrls.perBankRdBursts::11           711953                       # Per bank write bursts
system.mem_ctrls.perBankRdBursts::12            87786                       # Per bank write bursts
system.mem_ctrls.perBankRdBursts::13           126538                       # Per bank write bursts
system.mem_ctrls.perBankRdBursts::14           472656                       # Per bank write bursts
system.mem_ctrls.perBankRdBursts::15           308318                       # Per bank write bursts
system.mem_ctrls.perBankWrBursts::0              1257                       # Per bank write bursts
system.mem_ctrls.perBankWrBursts::1              1876                       # Per bank write bursts
system.mem_ctrls.perBankWrBursts::2              1169                       # Per bank write bursts
system.mem_ctrls.perBankWrBursts::3              5071                       # Per bank write bursts
system.mem_ctrls.perBankWrBursts::4              1869                       # Per bank write bursts
system.mem_ctrls.perBankWrBursts::5              1414                       # Per bank write bursts
system.mem_ctrls.perBankWrBursts::6               810                       # Per bank write bursts
system.mem_ctrls.perBankWrBursts::7              1270                       # Per bank write bursts
system.mem_ctrls.perBankWrBursts::8               974                       # Per bank write bursts
system.mem_ctrls.perBankWrBursts::9              1656                       # Per bank write bursts
system.mem_ctrls.perBankWrBursts::10             2992                       # Per bank write bursts
system.mem_ctrls.perBankWrBursts::11             1052                       # Per bank write bursts
system.mem_ctrls.perBankWrBursts::12              973                       # Per bank write bursts
system.mem_ctrls.perBankWrBursts::13             1200                       # Per bank write bursts
system.mem_ctrls.perBankWrBursts::14            13190                       # Per bank write bursts
system.mem_ctrls.perBankWrBursts::15             2585                       # Per bank write bursts
system.mem_ctrls.avgRdQLen                       1.00                       # Average read queue length when enqueuing
system.mem_ctrls.avgWrQLen                      26.73                       # Average write queue length when enqueuing
system.mem_ctrls.totQLat                  58545067250                       # Total ticks spent queuing
system.mem_ctrls.totBusLat                62894630000                       # Total ticks spent in databus transfers
system.mem_ctrls.totMemAccLat            294399929750                       # Total ticks spent from burst creation until serviced by the DRAM
system.mem_ctrls.avgQLat                      4654.22                       # Average queueing delay per DRAM burst
system.mem_ctrls.avgBusLat                    5000.00                       # Average bus latency per DRAM burst
system.mem_ctrls.avgMemAccLat                23404.22                       # Average memory access latency per DRAM burst
system.mem_ctrls.numRdRetry                         0                       # Number of times read queue was full causing retry
system.mem_ctrls.numWrRetry                         0                       # Number of times write queue was full causing retry
system.mem_ctrls.readRowHits                 10805760                       # Number of row buffer hits during reads
system.mem_ctrls.writeRowHits                   31897                       # Number of row buffer hits during writes
system.mem_ctrls.readRowHitRate                 85.90                       # Row buffer hit rate for reads
system.mem_ctrls.writeRowHitRate                81.00                       # Row buffer hit rate for writes
system.mem_ctrls.readPktSize::0                307441                       # Read request sizes (log2)
system.mem_ctrls.readPktSize::1                 71971                       # Read request sizes (log2)
system.mem_ctrls.readPktSize::2                240540                       # Read request sizes (log2)
system.mem_ctrls.readPktSize::3              12129280                       # Read request sizes (log2)
system.mem_ctrls.readPktSize::4                     0                       # Read request sizes (log2)
system.mem_ctrls.readPktSize::5                     0                       # Read request sizes (log2)
system.mem_ctrls.readPktSize::6                     0                       # Read request sizes (log2)
system.mem_ctrls.writePktSize::0                21540                       # Write request sizes (log2)
system.mem_ctrls.writePktSize::1                20273                       # Write request sizes (log2)
system.mem_ctrls.writePktSize::2               115731                       # Write request sizes (log2)
system.mem_ctrls.writePktSize::3               669133                       # Write request sizes (log2)
system.mem_ctrls.writePktSize::4                    0                       # Write request sizes (log2)
system.mem_ctrls.writePktSize::5                    0                       # Write request sizes (log2)
system.mem_ctrls.writePktSize::6                    0                       # Write request sizes (log2)
system.mem_ctrls.rdQLenPdf::0                12578830                       # What read queue length does an incoming req see
system.mem_ctrls.rdQLenPdf::1                      96                       # What read queue length does an incoming req see
system.mem_ctrls.rdQLenPdf::2                       0                       # What read queue length does an incoming req see
system.mem_ctrls.rdQLenPdf::3                       0                       # What read queue length does an incoming req see
system.mem_ctrls.rdQLenPdf::4                       0                       # What read queue length does an incoming req see
system.mem_ctrls.rdQLenPdf::5                       0                       # What read queue length does an incoming req see
system.mem_ctrls.rdQLenPdf::6                       0                       # What read queue length does an incoming req see
system.mem_ctrls.rdQLenPdf::7                       0                       # What read queue length does an incoming req see
system.mem_ctrls.rdQLenPdf::8                       0                       # What read queue length does an incoming req see
system.mem_ctrls.rdQLenPdf::9                       0                       # What read queue length does an incoming req see
system.mem_ctrls.rdQLenPdf::10                      0                       # What read queue length does an incoming req see
system.mem_ctrls.rdQLenPdf::11                      0                       # What read queue length does an incoming req see
system.mem_ctrls.rdQLenPdf::12                      0                       # What read queue length does an incoming req see
system.mem_ctrls.rdQLenPdf::13                      0                       # What read queue length does an incoming req see
system.mem_ctrls.rdQLenPdf::14                      0                       # What read queue length does an incoming req see
system.mem_ctrls.rdQLenPdf::15                      0                       # What read queue length does an incoming req see
system.mem_ctrls.rdQLenPdf::16                      0                       # What read queue length does an incoming req see
system.mem_ctrls.rdQLenPdf::17                      0                       # What read queue length does an incoming req see
system.mem_ctrls.rdQLenPdf::18                      0                       # What read queue length does an incoming req see
system.mem_ctrls.rdQLenPdf::19                      0                       # What read queue length does an incoming req see
system.mem_ctrls.rdQLenPdf::20                      0                       # What read queue length does an incoming req see
system.mem_ctrls.rdQLenPdf::21                      0                       # What read queue length does an incoming req see
system.mem_ctrls.rdQLenPdf::22                      0                       # What read queue length does an incoming req see
system.mem_ctrls.rdQLenPdf::23                      0                       # What read queue length does an incoming req see
system.mem_ctrls.rdQLenPdf::24                      0                       # What read queue length does an incoming req see
system.mem_ctrls.rdQLenPdf::25                      0                       # What read queue length does an incoming req see
system.mem_ctrls.rdQLenPdf::26                      0                       # What read queue length does an incoming req see
system.mem_ctrls.rdQLenPdf::27                      0                       # What read queue length does an incoming req see
system.mem_ctrls.rdQLenPdf::28                      0                       # What read queue length does an incoming req see
system.mem_ctrls.rdQLenPdf::29                      0                       # What read queue length does an incoming req see
system.mem_ctrls.rdQLenPdf::30                      0                       # What read queue length does an incoming req see
system.mem_ctrls.rdQLenPdf::31                      0                       # What read queue length does an incoming req see
system.mem_ctrls.wrQLenPdf::0                       1                       # What write queue length does an incoming req see
system.mem_ctrls.wrQLenPdf::1                       1                       # What write queue length does an incoming req see
system.mem_ctrls.wrQLenPdf::2                       1                       # What write queue length does an incoming req see
system.mem_ctrls.wrQLenPdf::3                       1                       # What write queue length does an incoming req see
system.mem_ctrls.wrQLenPdf::4                       1                       # What write queue length does an incoming req see
system.mem_ctrls.wrQLenPdf::5                       1                       # What write queue length does an incoming req see
system.mem_ctrls.wrQLenPdf::6                       1                       # What write queue length does an incoming req see
system.mem_ctrls.wrQLenPdf::7                       1                       # What write queue length does an incoming req see
system.mem_ctrls.wrQLenPdf::8                       1                       # What write queue length does an incoming req see
system.mem_ctrls.wrQLenPdf::9                       1                       # What write queue length does an incoming req see
system.mem_ctrls.wrQLenPdf::10                      1                       # What write queue length does an incoming req see
system.mem_ctrls.wrQLenPdf::11                      1                       # What write queue length does an incoming req see
system.mem_ctrls.wrQLenPdf::12                      1                       # What write queue length does an incoming req see
system.mem_ctrls.wrQLenPdf::13                      1                       # What write queue length does an incoming req see
system.mem_ctrls.wrQLenPdf::14                      1                       # What write queue length does an incoming req see
system.mem_ctrls.wrQLenPdf::15                    140                       # What write queue length does an incoming req see
system.mem_ctrls.wrQLenPdf::16                    140                       # What write queue length does an incoming req see
system.mem_ctrls.wrQLenPdf::17                   2431                       # What write queue length does an incoming req see
system.mem_ctrls.wrQLenPdf::18                   2443                       # What write queue length does an incoming req see
system.mem_ctrls.wrQLenPdf::19                   2447                       # What write queue length does an incoming req see
system.mem_ctrls.wrQLenPdf::20                   2442                       # What write queue length does an incoming req see
system.mem_ctrls.wrQLenPdf::21                   2443                       # What write queue length does an incoming req see
system.mem_ctrls.wrQLenPdf::22                   2442                       # What write queue length does an incoming req see
system.mem_ctrls.wrQLenPdf::23                   2450                       # What write queue length does an incoming req see
system.mem_ctrls.wrQLenPdf::24                   2442                       # What write queue length does an incoming req see
system.mem_ctrls.wrQLenPdf::25                   2444                       # What write queue length does an incoming req see
system.mem_ctrls.wrQLenPdf::26                   2445                       # What write queue length does an incoming req see
system.mem_ctrls.wrQLenPdf::27                   2443                       # What write queue length does an incoming req see
system.mem_ctrls.wrQLenPdf::28                   2442                       # What write queue length does an incoming req see
system.mem_ctrls.wrQLenPdf::29                   2442                       # What write queue length does an incoming req see
system.mem_ctrls.wrQLenPdf::30                   2442                       # What write queue length does an incoming req see
system.mem_ctrls.wrQLenPdf::31                   2442                       # What write queue length does an incoming req see
system.mem_ctrls.wrQLenPdf::32                   2442                       # What write queue length does an incoming req see
system.mem_ctrls.wrQLenPdf::33                      0                       # What write queue length does an incoming req see
system.mem_ctrls.wrQLenPdf::34                      0                       # What write queue length does an incoming req see
system.mem_ctrls.wrQLenPdf::35                      0                       # What write queue length does an incoming req see
system.mem_ctrls.wrQLenPdf::36                      0                       # What write queue length does an incoming req see
system.mem_ctrls.wrQLenPdf::37                      0                       # What write queue length does an incoming req see
system.mem_ctrls.wrQLenPdf::38                      0                       # What write queue length does an incoming req see
system.mem_ctrls.wrQLenPdf::39                      0                       # What write queue length does an incoming req see
system.mem_ctrls.wrQLenPdf::40                      0                       # What write queue length does an incoming req see
system.mem_ctrls.wrQLenPdf::41                      0                       # What write queue length does an incoming req see
system.mem_ctrls.wrQLenPdf::42                      0                       # What write queue length does an incoming req see
system.mem_ctrls.wrQLenPdf::43                      0                       # What write queue length does an incoming req see
system.mem_ctrls.wrQLenPdf::44                      0                       # What write queue length does an incoming req see
system.mem_ctrls.wrQLenPdf::45                      0                       # What write queue length does an incoming req see
system.mem_ctrls.wrQLenPdf::46                      0                       # What write queue length does an incoming req see
system.mem_ctrls.wrQLenPdf::47                      0                       # What write queue length does an incoming req see
system.mem_ctrls.wrQLenPdf::48                      0                       # What write queue length does an incoming req see
system.mem_ctrls.wrQLenPdf::49                      0                       # What write queue length does an incoming req see
system.mem_ctrls.wrQLenPdf::50                      0                       # What write queue length does an incoming req see
system.mem_ctrls.wrQLenPdf::51                      0                       # What write queue length does an incoming req see
system.mem_ctrls.wrQLenPdf::52                      0                       # What write queue length does an incoming req see
system.mem_ctrls.wrQLenPdf::53                      0                       # What write queue length does an incoming req see
system.mem_ctrls.wrQLenPdf::54                      0                       # What write queue length does an incoming req see
system.mem_ctrls.wrQLenPdf::55                      0                       # What write queue length does an incoming req see
system.mem_ctrls.wrQLenPdf::56                      0                       # What write queue length does an incoming req see
system.mem_ctrls.wrQLenPdf::57                      0                       # What write queue length does an incoming req see
system.mem_ctrls.wrQLenPdf::58                      0                       # What write queue length does an incoming req see
system.mem_ctrls.wrQLenPdf::59                      0                       # What write queue length does an incoming req see
system.mem_ctrls.wrQLenPdf::60                      0                       # What write queue length does an incoming req see
system.mem_ctrls.wrQLenPdf::61                      0                       # What write queue length does an incoming req see
system.mem_ctrls.wrQLenPdf::62                      0                       # What write queue length does an incoming req see
system.mem_ctrls.wrQLenPdf::63                      0                       # What write queue length does an incoming req see
system.mem_ctrls.bytesPerActivate::samples      1780622                       # Bytes accessed per row activation
system.mem_ctrls.bytesPerActivate::mean    453.531370                       # Bytes accessed per row activation
system.mem_ctrls.bytesPerActivate::gmean   264.965387                       # Bytes accessed per row activation
system.mem_ctrls.bytesPerActivate::stdev   394.810612                       # Bytes accessed per row activation
system.mem_ctrls.bytesPerActivate::0-127       545488     30.63%     30.63% # Bytes accessed per row activation
system.mem_ctrls.bytesPerActivate::128-255       250096     14.05%     44.68% # Bytes accessed per row activation
system.mem_ctrls.bytesPerActivate::256-383       183425     10.30%     54.98% # Bytes accessed per row activation
system.mem_ctrls.bytesPerActivate::384-511        83165      4.67%     59.65% # Bytes accessed per row activation
system.mem_ctrls.bytesPerActivate::512-639        96587      5.42%     65.08% # Bytes accessed per row activation
system.mem_ctrls.bytesPerActivate::640-767        45848      2.57%     67.65% # Bytes accessed per row activation
system.mem_ctrls.bytesPerActivate::768-895        94101      5.28%     72.94% # Bytes accessed per row activation
system.mem_ctrls.bytesPerActivate::896-1023        33884      1.90%     74.84% # Bytes accessed per row activation
system.mem_ctrls.bytesPerActivate::1024-1151       448028     25.16%    100.00% # Bytes accessed per row activation
system.mem_ctrls.bytesPerActivate::total      1780622                       # Bytes accessed per row activation
system.mem_ctrls.rdPerTurnAround::samples         2442                       # Reads before turning the bus around for writes
system.mem_ctrls.rdPerTurnAround::mean    5151.052007                       # Reads before turning the bus around for writes
system.mem_ctrls.rdPerTurnAround::stdev  30249.350004                       # Reads before turning the bus around for writes
system.mem_ctrls.rdPerTurnAround::0-65535         2427     99.39%     99.39% # Reads before turning the bus around for writes
system.mem_ctrls.rdPerTurnAround::65536-131071           14      0.57%     99.96% # Reads before turning the bus around for writes
system.mem_ctrls.rdPerTurnAround::1.37626e+06-1.44179e+06            1      0.04%    100.00% # Reads before turning the bus around for writes
system.mem_ctrls.rdPerTurnAround::total          2442                       # Reads before turning the bus around for writes
system.mem_ctrls.wrPerTurnAround::samples         2442                       # Writes before turning the bus around for reads
system.mem_ctrls.wrPerTurnAround::mean      16.117117                       # Writes before turning the bus around for reads
system.mem_ctrls.wrPerTurnAround::gmean     16.110482                       # Writes before turning the bus around for reads
system.mem_ctrls.wrPerTurnAround::stdev      0.480042                       # Writes before turning the bus around for reads
system.mem_ctrls.wrPerTurnAround::16             2303     94.31%     94.31% # Writes before turning the bus around for reads
system.mem_ctrls.wrPerTurnAround::18              131      5.36%     99.67% # Writes before turning the bus around for reads
system.mem_ctrls.wrPerTurnAround::19                8      0.33%    100.00% # Writes before turning the bus around for reads
system.mem_ctrls.wrPerTurnAround::total          2442                       # Writes before turning the bus around for reads
system.mem_ctrls.bytesReadDRAM              805051264                       # Total number of bytes read from DRAM
system.mem_ctrls.bytesReadWrQ                10899584                       # Total number of bytes read from write queue
system.mem_ctrls.bytesWritten                 2518912                       # Total number of bytes written to DRAM
system.mem_ctrls.bytesReadSys                98447627                       # Total read bytes from the system interface side
system.mem_ctrls.bytesWrittenSys              5877923                       # Total written bytes from the system interface side
system.mem_ctrls.avgRdBW                      1156.16                       # Average DRAM read bandwidth in MiByte/s
system.mem_ctrls.avgWrBW                         3.62                       # Average achieved write bandwidth in MiByte/s
system.mem_ctrls.avgRdBWSys                    141.38                       # Average system read bandwidth in MiByte/s
system.mem_ctrls.avgWrBWSys                      8.44                       # Average system write bandwidth in MiByte/s
system.mem_ctrls.peakBW                      12800.00                       # Theoretical peak bandwidth in MiByte/s
system.mem_ctrls.busUtil                         9.06                       # Data bus utilization in percentage
system.mem_ctrls.busUtilRead                     9.03                       # Data bus utilization in percentage for reads
system.mem_ctrls.busUtilWrite                    0.03                       # Data bus utilization in percentage for writes
system.mem_ctrls.totGap                  696315536000                       # Total gap between requests
system.mem_ctrls.avgGap                      51290.53                       # Average gap between requests
system.mem_ctrls.masterReadBytes::.cpu.inst     88379344                       # Per-master bytes read from memory
system.mem_ctrls.masterReadBytes::.cpu.data      8905374                       # Per-master bytes read from memory
system.mem_ctrls.masterWriteBytes::.cpu.data       258548                       # Per-master bytes write to memory
system.mem_ctrls.masterReadRate::.cpu.inst 126924251.202610477805                       # Per-master bytes read from memory rate (Bytes/sec)
system.mem_ctrls.masterReadRate::.cpu.data 12789277.171249382198                       # Per-master bytes read from memory rate (Bytes/sec)
system.mem_ctrls.masterWriteRate::.cpu.data 371308.609169270727                       # Per-master bytes write to memory rate (Bytes/sec)
system.mem_ctrls.masterReadAccesses::.cpu.inst     11047418                       # Per-master read serviced memory accesses
system.mem_ctrls.masterReadAccesses::.cpu.data      1701814                       # Per-master read serviced memory accesses
system.mem_ctrls.masterWriteAccesses::.cpu.data       826677                       # Per-master write serviced memory accesses
system.mem_ctrls.masterReadTotalLat::.cpu.inst 247135956000                       # Per-master read total memory access latency
system.mem_ctrls.masterReadTotalLat::.cpu.data  47263973750                       # Per-master read total memory access latency
system.mem_ctrls.masterWriteTotalLat::.cpu.data 18493856500750                       # Per-master write total memory access latency
system.mem_ctrls.masterReadAvgLat::.cpu.inst     22370.47                       # Per-master read average memory access latency
system.mem_ctrls.masterReadAvgLat::.cpu.data     27772.70                       # Per-master read average memory access latency
system.mem_ctrls.masterWriteAvgLat::.cpu.data  22371320.96                       # Per-master write average memory access latency
system.mem_ctrls.pageHitRate                    85.89                       # Row buffer hit rate, read and write combined
system.mem_ctrls.rank1.actEnergy           2516607240                       # Energy for activate commands per rank (pJ)
system.mem_ctrls.rank1.preEnergy           1337589495                       # Energy for precharge commands per rank (pJ)
system.mem_ctrls.rank1.readEnergy         14967303540                       # Energy for read commands per rank (pJ)
system.mem_ctrls.rank1.writeEnergy          128526840                       # Energy for write commands per rank (pJ)
system.mem_ctrls.rank1.refreshEnergy     54966025920.000008                       # Energy for refresh commands per rank (pJ)
system.mem_ctrls.rank1.actBackEnergy     262277532540                       # Energy for active background per rank (pJ)
system.mem_ctrls.rank1.preBackEnergy      46519923840                       # Energy for precharge background per rank (pJ)
system.mem_ctrls.rank1.actPowerDownEnergy            0                       # Energy for active power-down per rank (pJ)
system.mem_ctrls.rank1.prePowerDownEnergy            0                       # Energy for precharge power-down per rank (pJ)
system.mem_ctrls.rank1.selfRefreshEnergy            0                       # Energy for self refresh per rank (pJ)
system.mem_ctrls.rank1.totalEnergy       382713509415                       # Total energy per rank (pJ)
system.mem_ctrls.rank1.averagePower        549.626456                       # Core power per rank (mW)
system.mem_ctrls.rank1.totalIdleTime                0                       # Total Idle time Per DRAM Rank
system.mem_ctrls.rank1.memoryStateTime::IDLE 118616259500                       # Time in different power states
system.mem_ctrls.rank1.memoryStateTime::REF  23251280000                       # Time in different power states
system.mem_ctrls.rank1.memoryStateTime::SREF            0                       # Time in different power states
system.mem_ctrls.rank1.memoryStateTime::PRE_PDN            0                       # Time in different power states
system.mem_ctrls.rank1.memoryStateTime::ACT 554448122500                       # Time in different power states
system.mem_ctrls.rank1.memoryStateTime::ACT_PDN            0                       # Time in different power states
system.mem_ctrls.rank0.actEnergy          10197069540                       # Energy for activate commands per rank (pJ)
system.mem_ctrls.rank0.preEnergy           5419870995                       # Energy for precharge commands per rank (pJ)
system.mem_ctrls.rank0.readEnergy         74846228100                       # Energy for read commands per rank (pJ)
system.mem_ctrls.rank0.writeEnergy           76921920                       # Energy for write commands per rank (pJ)
system.mem_ctrls.rank0.refreshEnergy     54966025920.000008                       # Energy for refresh commands per rank (pJ)
system.mem_ctrls.rank0.actBackEnergy     307892476230                       # Energy for active background per rank (pJ)
system.mem_ctrls.rank0.preBackEnergy       8107339680                       # Energy for precharge background per rank (pJ)
system.mem_ctrls.rank0.actPowerDownEnergy            0                       # Energy for active power-down per rank (pJ)
system.mem_ctrls.rank0.prePowerDownEnergy            0                       # Energy for precharge power-down per rank (pJ)
system.mem_ctrls.rank0.selfRefreshEnergy            0                       # Energy for self refresh per rank (pJ)
system.mem_ctrls.rank0.totalEnergy       461505932385                       # Total energy per rank (pJ)
system.mem_ctrls.rank0.averagePower        662.782639                       # Core power per rank (mW)
system.mem_ctrls.rank0.totalIdleTime                0                       # Total Idle time Per DRAM Rank
system.mem_ctrls.rank0.memoryStateTime::IDLE  12932090000                       # Time in different power states
system.mem_ctrls.rank0.memoryStateTime::REF  23251280000                       # Time in different power states
system.mem_ctrls.rank0.memoryStateTime::SREF            0                       # Time in different power states
system.mem_ctrls.rank0.memoryStateTime::PRE_PDN            0                       # Time in different power states
system.mem_ctrls.rank0.memoryStateTime::ACT 660132292000                       # Time in different power states
system.mem_ctrls.rank0.memoryStateTime::ACT_PDN            0                       # Time in different power states
system.mem_ctrls.power_state.pwrStateResidencyTicks::UNDEFINED 696315662000                       # Cumulative time (in ticks) in various power states
system.cpu_clk_domain.clock                       500                       # Clock period in ticks
system.cpu.dtb.walker.power_state.pwrStateResidencyTicks::UNDEFINED 696315662000                       # Cumulative time (in ticks) in various power states
system.cpu.interrupts.clk_domain.clock           8000                       # Clock period in ticks
system.cpu.itb.walker.power_state.pwrStateResidencyTicks::UNDEFINED 696315662000                       # Cumulative time (in ticks) in various power states
system.cpu.power_state.numTransitions               1                       # Number of power state transitions
system.cpu.power_state.pwrStateResidencyTicks::ON 696315662000                       # Cumulative time (in ticks) in various power states

---------- End Simulation Statistics   ----------
