
---------- Begin Simulation Statistics ----------
final_tick                               89145052262000                       # Number of ticks from beginning of simulation (restored from checkpoints and never reset)
host_inst_rate                                  53635                       # Simulator instruction rate (inst/s)
host_mem_usage                                 854968                       # Number of bytes of host memory used
host_op_rate                                   113153                       # Simulator op (including micro ops) rate (op/s)
host_seconds                                 18644.42                       # Real time elapsed on the host
host_tick_rate                             4781325537                       # Simulator tick rate (ticks/s)
sim_freq                                 1000000000000                       # Frequency of simulated ticks
sim_insts                                  1000000001                       # Number of instructions simulated
sim_ops                                    2109669063                       # Number of ops (including micro ops) simulated
sim_seconds                                 89.145052                       # Number of seconds simulated
sim_ticks                                89145052262000                       # Number of ticks simulated
system.cpu.Branches                         119326432                       # Number of branches fetched
system.cpu.committedInsts                  1000000001                       # Number of instructions committed
system.cpu.committedOps                    2109669063                       # Number of ops (including micro ops) committed
system.cpu.dtb.rdAccesses                   269973063                       # TLB accesses on read requests
system.cpu.dtb.rdMisses                       2646262                       # TLB misses on read requests
system.cpu.dtb.wrAccesses                   143446872                       # TLB accesses on write requests
system.cpu.dtb.wrMisses                        350129                       # TLB misses on write requests
system.cpu.idle_fraction                            0                       # Percentage of idle cycles
system.cpu.itb.rdAccesses                           0                       # TLB accesses on read requests
system.cpu.itb.rdMisses                             0                       # TLB misses on read requests
system.cpu.itb.wrAccesses                  1391126786                       # TLB accesses on write requests
system.cpu.itb.wrMisses                           235                       # TLB misses on write requests
system.cpu.not_idle_fraction                        1                       # Percentage of non-idle cycles
system.cpu.numCycles                     178290104524                       # number of cpu cycles simulated
system.cpu.numWorkItemsCompleted                    0                       # number of work items this cpu completed
system.cpu.numWorkItemsStarted                      0                       # number of work items this cpu started
system.cpu.num_busy_cycles               178290104524                       # Number of busy cycles
system.cpu.num_cc_register_reads           1137787272                       # number of times the CC registers were read
system.cpu.num_cc_register_writes           486443174                       # number of times the CC registers were written
system.cpu.num_conditional_control_insts     82339178                       # number of instructions that are conditional controls
system.cpu.num_fp_alu_accesses              622658167                       # Number of float alu accesses
system.cpu.num_fp_insts                     622658167                       # number of float instructions
system.cpu.num_fp_register_reads            910775811                       # number of times the floating registers were read
system.cpu.num_fp_register_writes           551849108                       # number of times the floating registers were written
system.cpu.num_func_calls                    28415984                       # number of times a function call or return occured
system.cpu.num_idle_cycles                          0                       # Number of idle cycles
system.cpu.num_int_alu_accesses            1663819497                       # Number of integer alu accesses
system.cpu.num_int_insts                   1663819497                       # number of integer instructions
system.cpu.num_int_register_reads          3743019405                       # number of times the integer registers were read
system.cpu.num_int_register_writes         1520569793                       # number of times the integer registers were written
system.cpu.num_load_insts                   269973058                       # Number of load instructions
system.cpu.num_mem_refs                     413419924                       # number of memory refs
system.cpu.num_store_insts                  143446866                       # Number of store instructions
system.cpu.num_vec_alu_accesses                     0                       # Number of vector alu accesses
system.cpu.num_vec_insts                            0                       # number of vector instructions
system.cpu.num_vec_register_reads                   0                       # number of times the vector registers were read
system.cpu.num_vec_register_writes                  0                       # number of times the vector registers were written
system.cpu.op_class::No_OpClass              15364762      0.73%      0.73% # Class of executed instruction
system.cpu.op_class::IntAlu                1233982566     58.49%     59.22% # Class of executed instruction
system.cpu.op_class::IntMult                 10400201      0.49%     59.71% # Class of executed instruction
system.cpu.op_class::IntDiv                 107521876      5.10%     64.81% # Class of executed instruction
system.cpu.op_class::FloatAdd               112488610      5.33%     70.14% # Class of executed instruction
system.cpu.op_class::FloatCmp                       0      0.00%     70.14% # Class of executed instruction
system.cpu.op_class::FloatCvt                     160      0.00%     70.14% # Class of executed instruction
system.cpu.op_class::FloatMult                      0      0.00%     70.14% # Class of executed instruction
system.cpu.op_class::FloatMultAcc                   0      0.00%     70.14% # Class of executed instruction
system.cpu.op_class::FloatDiv                       0      0.00%     70.14% # Class of executed instruction
system.cpu.op_class::FloatMisc                      0      0.00%     70.14% # Class of executed instruction
system.cpu.op_class::FloatSqrt                      0      0.00%     70.14% # Class of executed instruction
system.cpu.op_class::SimdAdd                       48      0.00%     70.14% # Class of executed instruction
system.cpu.op_class::SimdAddAcc                     0      0.00%     70.14% # Class of executed instruction
system.cpu.op_class::SimdAlu                 12766038      0.61%     70.74% # Class of executed instruction
system.cpu.op_class::SimdCmp                        0      0.00%     70.74% # Class of executed instruction
system.cpu.op_class::SimdCvt                      508      0.00%     70.74% # Class of executed instruction
system.cpu.op_class::SimdMisc                    1025      0.00%     70.74% # Class of executed instruction
system.cpu.op_class::SimdMult                       0      0.00%     70.74% # Class of executed instruction
system.cpu.op_class::SimdMultAcc                    0      0.00%     70.74% # Class of executed instruction
system.cpu.op_class::SimdShift                     37      0.00%     70.74% # Class of executed instruction
system.cpu.op_class::SimdShiftAcc                   0      0.00%     70.74% # Class of executed instruction
system.cpu.op_class::SimdDiv                        0      0.00%     70.74% # Class of executed instruction
system.cpu.op_class::SimdSqrt                       0      0.00%     70.74% # Class of executed instruction
system.cpu.op_class::SimdFloatAdd            93651769      4.44%     75.18% # Class of executed instruction
system.cpu.op_class::SimdFloatAlu                   0      0.00%     75.18% # Class of executed instruction
system.cpu.op_class::SimdFloatCmp                   0      0.00%     75.18% # Class of executed instruction
system.cpu.op_class::SimdFloatCvt                   0      0.00%     75.18% # Class of executed instruction
system.cpu.op_class::SimdFloatDiv                   0      0.00%     75.18% # Class of executed instruction
system.cpu.op_class::SimdFloatMisc                  0      0.00%     75.18% # Class of executed instruction
system.cpu.op_class::SimdFloatMult          110160398      5.22%     80.40% # Class of executed instruction
system.cpu.op_class::SimdFloatMultAcc               0      0.00%     80.40% # Class of executed instruction
system.cpu.op_class::SimdFloatSqrt                  0      0.00%     80.40% # Class of executed instruction
system.cpu.op_class::SimdReduceAdd                  0      0.00%     80.40% # Class of executed instruction
system.cpu.op_class::SimdReduceAlu                  0      0.00%     80.40% # Class of executed instruction
system.cpu.op_class::SimdReduceCmp                  0      0.00%     80.40% # Class of executed instruction
system.cpu.op_class::SimdFloatReduceAdd             0      0.00%     80.40% # Class of executed instruction
system.cpu.op_class::SimdFloatReduceCmp             0      0.00%     80.40% # Class of executed instruction
system.cpu.op_class::SimdAes                        0      0.00%     80.40% # Class of executed instruction
system.cpu.op_class::SimdAesMix                     0      0.00%     80.40% # Class of executed instruction
system.cpu.op_class::SimdSha1Hash                   0      0.00%     80.40% # Class of executed instruction
system.cpu.op_class::SimdSha1Hash2                  0      0.00%     80.40% # Class of executed instruction
system.cpu.op_class::SimdSha256Hash                 0      0.00%     80.40% # Class of executed instruction
system.cpu.op_class::SimdSha256Hash2                0      0.00%     80.40% # Class of executed instruction
system.cpu.op_class::SimdShaSigma2                  0      0.00%     80.40% # Class of executed instruction
system.cpu.op_class::SimdShaSigma3                  0      0.00%     80.40% # Class of executed instruction
system.cpu.op_class::SimdPredAlu                    0      0.00%     80.40% # Class of executed instruction
system.cpu.op_class::MemRead                148689614      7.05%     87.45% # Class of executed instruction
system.cpu.op_class::MemWrite                72638439      3.44%     90.90% # Class of executed instruction
system.cpu.op_class::FloatMemRead           121283444      5.75%     96.64% # Class of executed instruction
system.cpu.op_class::FloatMemWrite           70808427      3.36%    100.00% # Class of executed instruction
system.cpu.op_class::IprAccess                      0      0.00%    100.00% # Class of executed instruction
system.cpu.op_class::InstPrefetch                   0      0.00%    100.00% # Class of executed instruction
system.cpu.op_class::total                 2109757922                       # Class of executed instruction
system.cpu.valuePred.lookups               1177203729                       # Number of VP lookups
system.cpu.valuePred.numCorrectPredicted    507645098                       # Number of value predictions
system.cpu.valuePred.numIncorrectPredicted     81472793                       # Number of incorrect value predictions
system.cpu.valuePred.numLoadCorrectPredicted     89046474                       # Number of Correct Load value predictions
system.cpu.valuePred.numLoadPredicted        96436493                       # Number of Load value predictions
system.cpu.valuePred.numPredicted           589117897                       # Number of value predictions
system.cpu.valuePred.valuePredAccuracy       0.861704                       # VP Accuracy
system.cpu.valuePred.valuePredCoverage       0.431230                       # VP Coverage
system.cpu.workload.numSyscalls                    80                       # Number of system calls
system.membus.snoop_filter.hit_multi_requests            0                       # Number of requests hitting in the snoop filter with multiple (>1) holders of the requested data.
system.membus.snoop_filter.hit_multi_snoops            0                       # Number of snoops hitting in the snoop filter with multiple (>1) holders of the requested data.
system.membus.snoop_filter.hit_single_requests            0                       # Number of requests hitting in the snoop filter with a single holder of the requested data.
system.membus.snoop_filter.hit_single_snoops            0                       # Number of snoops hitting in the snoop filter with a single holder of the requested data.
system.membus.snoop_filter.tot_requests             0                       # Total number of requests made to the snoop filter.
system.membus.snoop_filter.tot_snoops               0                       # Total number of snoops made to the snoop filter.
system.membus.trans_dist::ReadReq          1661099713                       # Transaction distribution
system.membus.trans_dist::ReadResp         1661099712                       # Transaction distribution
system.membus.trans_dist::WriteReq          143358077                       # Transaction distribution
system.membus.trans_dist::WriteResp         143358077                       # Transaction distribution
system.membus.pkt_count_system.cpu.icache_port::system.mem_ctrls.port   2782253427                       # Packet count per connected master and slave (bytes)
system.membus.pkt_count_system.cpu.icache_port::total   2782253427                       # Packet count per connected master and slave (bytes)
system.membus.pkt_count_system.cpu.dcache_port::system.mem_ctrls.port    826662152                       # Packet count per connected master and slave (bytes)
system.membus.pkt_count_system.cpu.dcache_port::total    826662152                       # Packet count per connected master and slave (bytes)
system.membus.pkt_count::total             3608915579                       # Packet count per connected master and slave (bytes)
system.membus.pkt_size_system.cpu.icache_port::system.mem_ctrls.port  11129013704                       # Cumulative packet size per connected master and slave (bytes)
system.membus.pkt_size_system.cpu.icache_port::total  11129013704                       # Cumulative packet size per connected master and slave (bytes)
system.membus.pkt_size_system.cpu.dcache_port::system.mem_ctrls.port   2895049452                       # Cumulative packet size per connected master and slave (bytes)
system.membus.pkt_size_system.cpu.dcache_port::total   2895049452                       # Cumulative packet size per connected master and slave (bytes)
system.membus.pkt_size::total             14024063156                       # Cumulative packet size per connected master and slave (bytes)
system.membus.snoops                                0                       # Total snoops (count)
system.membus.snoopTraffic                          0                       # Total snoop traffic (bytes)
system.membus.snoop_fanout::samples        1804457790                       # Request fanout histogram
system.membus.snoop_fanout::mean                    0                       # Request fanout histogram
system.membus.snoop_fanout::stdev                   0                       # Request fanout histogram
system.membus.snoop_fanout::underflows              0      0.00%      0.00% # Request fanout histogram
system.membus.snoop_fanout::0              1804457790    100.00%    100.00% # Request fanout histogram
system.membus.snoop_fanout::1                       0      0.00%    100.00% # Request fanout histogram
system.membus.snoop_fanout::overflows               0      0.00%    100.00% # Request fanout histogram
system.membus.snoop_fanout::min_value               0                       # Request fanout histogram
system.membus.snoop_fanout::max_value               0                       # Request fanout histogram
system.membus.snoop_fanout::total          1804457790                       # Request fanout histogram
system.membus.reqLayer2.occupancy        1947815867000                       # Layer occupancy (ticks)
system.membus.reqLayer2.utilization               2.2                       # Layer utilization (%)
system.membus.respLayer1.occupancy       3156042524000                       # Layer occupancy (ticks)
system.membus.respLayer1.utilization              3.5                       # Layer utilization (%)
system.membus.respLayer2.occupancy       761120865500                       # Layer occupancy (ticks)
system.membus.respLayer2.utilization              0.9                       # Layer utilization (%)
system.membus.power_state.pwrStateResidencyTicks::UNDEFINED 89145052262000                       # Cumulative time (in ticks) in various power states
system.voltage_domain.voltage                       1                       # Voltage in Volts
system.clk_domain.clock                          1000                       # Clock period in ticks
system.cpu_voltage_domain.voltage                   1                       # Voltage in Volts
system.mem_ctrls.bytes_read::.cpu.inst    11129013704                       # Number of bytes read from this memory
system.mem_ctrls.bytes_read::.cpu.data     1844707800                       # Number of bytes read from this memory
system.mem_ctrls.bytes_read::total        12973721504                       # Number of bytes read from this memory
system.mem_ctrls.bytes_inst_read::.cpu.inst  11129013704                       # Number of instructions bytes read from this memory
system.mem_ctrls.bytes_inst_read::total   11129013704                       # Number of instructions bytes read from this memory
system.mem_ctrls.bytes_written::.cpu.data   1050341652                       # Number of bytes written to this memory
system.mem_ctrls.bytes_written::total      1050341652                       # Number of bytes written to this memory
system.mem_ctrls.num_reads::.cpu.inst      1391126713                       # Number of read requests responded to by this memory
system.mem_ctrls.num_reads::.cpu.data       269972999                       # Number of read requests responded to by this memory
system.mem_ctrls.num_reads::total          1661099712                       # Number of read requests responded to by this memory
system.mem_ctrls.num_writes::.cpu.data      143358077                       # Number of write requests responded to by this memory
system.mem_ctrls.num_writes::total          143358077                       # Number of write requests responded to by this memory
system.mem_ctrls.bw_read::.cpu.inst         124841631                       # Total read bandwidth from this memory (bytes/s)
system.mem_ctrls.bw_read::.cpu.data          20693328                       # Total read bandwidth from this memory (bytes/s)
system.mem_ctrls.bw_read::total             145534959                       # Total read bandwidth from this memory (bytes/s)
system.mem_ctrls.bw_inst_read::.cpu.inst    124841631                       # Instruction read bandwidth from this memory (bytes/s)
system.mem_ctrls.bw_inst_read::total        124841631                       # Instruction read bandwidth from this memory (bytes/s)
system.mem_ctrls.bw_write::.cpu.data         11782389                       # Write bandwidth from this memory (bytes/s)
system.mem_ctrls.bw_write::total             11782389                       # Write bandwidth from this memory (bytes/s)
system.mem_ctrls.bw_total::.cpu.inst        124841631                       # Total bandwidth to/from this memory (bytes/s)
system.mem_ctrls.bw_total::.cpu.data         32475717                       # Total bandwidth to/from this memory (bytes/s)
system.mem_ctrls.bw_total::total            157317347                       # Total bandwidth to/from this memory (bytes/s)
system.mem_ctrls.avgPriority_.cpu.inst::samples 1391126714.00                       # Average QoS priority value for accepted requests
system.mem_ctrls.avgPriority_.cpu.data::samples 259663035.00                       # Average QoS priority value for accepted requests
system.mem_ctrls.priorityMinLatency      0.000000018750                       # per QoS priority minimum request to response latency (s)
system.mem_ctrls.priorityMaxLatency      15.622292404500                       # per QoS priority maximum request to response latency (s)
system.mem_ctrls.numReadWriteTurnArounds       542172                       # Number of turnarounds from READ to WRITE
system.mem_ctrls.numWriteReadTurnArounds       542172                       # Number of turnarounds from WRITE to READ
system.mem_ctrls.numStayReadState          3449615551                       # Number of times bus staying in READ state
system.mem_ctrls.numStayWriteState            8141382                       # Number of times bus staying in WRITE state
system.mem_ctrls.readReqs                  1661099713                       # Number of read requests accepted
system.mem_ctrls.writeReqs                  143358077                       # Number of write requests accepted
system.mem_ctrls.readBursts                1661099713                       # Number of DRAM read bursts, including those serviced by the write queue
system.mem_ctrls.writeBursts                143358077                       # Number of DRAM write bursts, including those merged in the write queue
system.mem_ctrls.servicedByWrQ               18987247                       # Number of DRAM read bursts serviced by the write queue
system.mem_ctrls.mergedWrBursts             134680794                       # Number of DRAM write bursts merged with an existing one
system.mem_ctrls.neitherReadNorWriteReqs            0                       # Number of requests that are neither read nor write
system.mem_ctrls.perBankRdBursts::0          70020691                       # Per bank write bursts
system.mem_ctrls.perBankRdBursts::1         156719374                       # Per bank write bursts
system.mem_ctrls.perBankRdBursts::2         182158905                       # Per bank write bursts
system.mem_ctrls.perBankRdBursts::3          11600728                       # Per bank write bursts
system.mem_ctrls.perBankRdBursts::4           8082526                       # Per bank write bursts
system.mem_ctrls.perBankRdBursts::5          32841495                       # Per bank write bursts
system.mem_ctrls.perBankRdBursts::6          84922378                       # Per bank write bursts
system.mem_ctrls.perBankRdBursts::7           8165491                       # Per bank write bursts
system.mem_ctrls.perBankRdBursts::8         649797188                       # Per bank write bursts
system.mem_ctrls.perBankRdBursts::9          59401574                       # Per bank write bursts
system.mem_ctrls.perBankRdBursts::10         83770966                       # Per bank write bursts
system.mem_ctrls.perBankRdBursts::11        228480491                       # Per bank write bursts
system.mem_ctrls.perBankRdBursts::12         10170519                       # Per bank write bursts
system.mem_ctrls.perBankRdBursts::13          8074844                       # Per bank write bursts
system.mem_ctrls.perBankRdBursts::14          8093023                       # Per bank write bursts
system.mem_ctrls.perBankRdBursts::15         39812273                       # Per bank write bursts
system.mem_ctrls.perBankWrBursts::0            526204                       # Per bank write bursts
system.mem_ctrls.perBankWrBursts::1            526376                       # Per bank write bursts
system.mem_ctrls.perBankWrBursts::2            526532                       # Per bank write bursts
system.mem_ctrls.perBankWrBursts::3            531608                       # Per bank write bursts
system.mem_ctrls.perBankWrBursts::4            526299                       # Per bank write bursts
system.mem_ctrls.perBankWrBursts::5            526140                       # Per bank write bursts
system.mem_ctrls.perBankWrBursts::6            747452                       # Per bank write bursts
system.mem_ctrls.perBankWrBursts::7            530314                       # Per bank write bursts
system.mem_ctrls.perBankWrBursts::8            526195                       # Per bank write bursts
system.mem_ctrls.perBankWrBursts::9            536883                       # Per bank write bursts
system.mem_ctrls.perBankWrBursts::10           537557                       # Per bank write bursts
system.mem_ctrls.perBankWrBursts::11           529114                       # Per bank write bursts
system.mem_ctrls.perBankWrBursts::12           529508                       # Per bank write bursts
system.mem_ctrls.perBankWrBursts::13           525603                       # Per bank write bursts
system.mem_ctrls.perBankWrBursts::14           525744                       # Per bank write bursts
system.mem_ctrls.perBankWrBursts::15           525731                       # Per bank write bursts
system.mem_ctrls.avgRdQLen                       1.00                       # Average read queue length when enqueuing
system.mem_ctrls.avgWrQLen                      26.55                       # Average write queue length when enqueuing
system.mem_ctrls.totQLat                 5250199515750                       # Total ticks spent queuing
system.mem_ctrls.totBusLat               8210562330000                       # Total ticks spent in databus transfers
system.mem_ctrls.totMemAccLat            36039808253250                       # Total ticks spent from burst creation until serviced by the DRAM
system.mem_ctrls.avgQLat                      3197.22                       # Average queueing delay per DRAM burst
system.mem_ctrls.avgBusLat                    5000.00                       # Average bus latency per DRAM burst
system.mem_ctrls.avgMemAccLat                21947.22                       # Average memory access latency per DRAM burst
system.mem_ctrls.numRdRetry                         0                       # Number of times read queue was full causing retry
system.mem_ctrls.numWrRetry                         0                       # Number of times write queue was full causing retry
system.mem_ctrls.readRowHits               1492683414                       # Number of row buffer hits during reads
system.mem_ctrls.writeRowHits                 7918005                       # Number of row buffer hits during writes
system.mem_ctrls.readRowHitRate                 90.90                       # Row buffer hit rate for reads
system.mem_ctrls.writeRowHitRate                91.25                       # Row buffer hit rate for writes
system.mem_ctrls.readPktSize::0               1295565                       # Read request sizes (log2)
system.mem_ctrls.readPktSize::1              15842977                       # Read request sizes (log2)
system.mem_ctrls.readPktSize::2              52737343                       # Read request sizes (log2)
system.mem_ctrls.readPktSize::3            1591223828                       # Read request sizes (log2)
system.mem_ctrls.readPktSize::4                     0                       # Read request sizes (log2)
system.mem_ctrls.readPktSize::5                     0                       # Read request sizes (log2)
system.mem_ctrls.readPktSize::6                     0                       # Read request sizes (log2)
system.mem_ctrls.writePktSize::0               162832                       # Write request sizes (log2)
system.mem_ctrls.writePktSize::1               640182                       # Write request sizes (log2)
system.mem_ctrls.writePktSize::2             22885510                       # Write request sizes (log2)
system.mem_ctrls.writePktSize::3            119669553                       # Write request sizes (log2)
system.mem_ctrls.writePktSize::4                    0                       # Write request sizes (log2)
system.mem_ctrls.writePktSize::5                    0                       # Write request sizes (log2)
system.mem_ctrls.writePktSize::6                    0                       # Write request sizes (log2)
system.mem_ctrls.rdQLenPdf::0              1642112461                       # What read queue length does an incoming req see
system.mem_ctrls.rdQLenPdf::1                       5                       # What read queue length does an incoming req see
system.mem_ctrls.rdQLenPdf::2                       0                       # What read queue length does an incoming req see
system.mem_ctrls.rdQLenPdf::3                       0                       # What read queue length does an incoming req see
system.mem_ctrls.rdQLenPdf::4                       0                       # What read queue length does an incoming req see
system.mem_ctrls.rdQLenPdf::5                       0                       # What read queue length does an incoming req see
system.mem_ctrls.rdQLenPdf::6                       0                       # What read queue length does an incoming req see
system.mem_ctrls.rdQLenPdf::7                       0                       # What read queue length does an incoming req see
system.mem_ctrls.rdQLenPdf::8                       0                       # What read queue length does an incoming req see
system.mem_ctrls.rdQLenPdf::9                       0                       # What read queue length does an incoming req see
system.mem_ctrls.rdQLenPdf::10                      0                       # What read queue length does an incoming req see
system.mem_ctrls.rdQLenPdf::11                      0                       # What read queue length does an incoming req see
system.mem_ctrls.rdQLenPdf::12                      0                       # What read queue length does an incoming req see
system.mem_ctrls.rdQLenPdf::13                      0                       # What read queue length does an incoming req see
system.mem_ctrls.rdQLenPdf::14                      0                       # What read queue length does an incoming req see
system.mem_ctrls.rdQLenPdf::15                      0                       # What read queue length does an incoming req see
system.mem_ctrls.rdQLenPdf::16                      0                       # What read queue length does an incoming req see
system.mem_ctrls.rdQLenPdf::17                      0                       # What read queue length does an incoming req see
system.mem_ctrls.rdQLenPdf::18                      0                       # What read queue length does an incoming req see
system.mem_ctrls.rdQLenPdf::19                      0                       # What read queue length does an incoming req see
system.mem_ctrls.rdQLenPdf::20                      0                       # What read queue length does an incoming req see
system.mem_ctrls.rdQLenPdf::21                      0                       # What read queue length does an incoming req see
system.mem_ctrls.rdQLenPdf::22                      0                       # What read queue length does an incoming req see
system.mem_ctrls.rdQLenPdf::23                      0                       # What read queue length does an incoming req see
system.mem_ctrls.rdQLenPdf::24                      0                       # What read queue length does an incoming req see
system.mem_ctrls.rdQLenPdf::25                      0                       # What read queue length does an incoming req see
system.mem_ctrls.rdQLenPdf::26                      0                       # What read queue length does an incoming req see
system.mem_ctrls.rdQLenPdf::27                      0                       # What read queue length does an incoming req see
system.mem_ctrls.rdQLenPdf::28                      0                       # What read queue length does an incoming req see
system.mem_ctrls.rdQLenPdf::29                      0                       # What read queue length does an incoming req see
system.mem_ctrls.rdQLenPdf::30                      0                       # What read queue length does an incoming req see
system.mem_ctrls.rdQLenPdf::31                      0                       # What read queue length does an incoming req see
system.mem_ctrls.wrQLenPdf::0                       1                       # What write queue length does an incoming req see
system.mem_ctrls.wrQLenPdf::1                       1                       # What write queue length does an incoming req see
system.mem_ctrls.wrQLenPdf::2                       1                       # What write queue length does an incoming req see
system.mem_ctrls.wrQLenPdf::3                       1                       # What write queue length does an incoming req see
system.mem_ctrls.wrQLenPdf::4                       1                       # What write queue length does an incoming req see
system.mem_ctrls.wrQLenPdf::5                       1                       # What write queue length does an incoming req see
system.mem_ctrls.wrQLenPdf::6                       1                       # What write queue length does an incoming req see
system.mem_ctrls.wrQLenPdf::7                       1                       # What write queue length does an incoming req see
system.mem_ctrls.wrQLenPdf::8                       1                       # What write queue length does an incoming req see
system.mem_ctrls.wrQLenPdf::9                       1                       # What write queue length does an incoming req see
system.mem_ctrls.wrQLenPdf::10                      1                       # What write queue length does an incoming req see
system.mem_ctrls.wrQLenPdf::11                      1                       # What write queue length does an incoming req see
system.mem_ctrls.wrQLenPdf::12                      1                       # What write queue length does an incoming req see
system.mem_ctrls.wrQLenPdf::13                      1                       # What write queue length does an incoming req see
system.mem_ctrls.wrQLenPdf::14                      1                       # What write queue length does an incoming req see
system.mem_ctrls.wrQLenPdf::15                   1254                       # What write queue length does an incoming req see
system.mem_ctrls.wrQLenPdf::16                   1254                       # What write queue length does an incoming req see
system.mem_ctrls.wrQLenPdf::17                 542173                       # What write queue length does an incoming req see
system.mem_ctrls.wrQLenPdf::18                 542174                       # What write queue length does an incoming req see
system.mem_ctrls.wrQLenPdf::19                 542174                       # What write queue length does an incoming req see
system.mem_ctrls.wrQLenPdf::20                 542173                       # What write queue length does an incoming req see
system.mem_ctrls.wrQLenPdf::21                 542173                       # What write queue length does an incoming req see
system.mem_ctrls.wrQLenPdf::22                 542173                       # What write queue length does an incoming req see
system.mem_ctrls.wrQLenPdf::23                 542172                       # What write queue length does an incoming req see
system.mem_ctrls.wrQLenPdf::24                 542172                       # What write queue length does an incoming req see
system.mem_ctrls.wrQLenPdf::25                 542172                       # What write queue length does an incoming req see
system.mem_ctrls.wrQLenPdf::26                 542172                       # What write queue length does an incoming req see
system.mem_ctrls.wrQLenPdf::27                 542172                       # What write queue length does an incoming req see
system.mem_ctrls.wrQLenPdf::28                 542172                       # What write queue length does an incoming req see
system.mem_ctrls.wrQLenPdf::29                 542172                       # What write queue length does an incoming req see
system.mem_ctrls.wrQLenPdf::30                 542172                       # What write queue length does an incoming req see
system.mem_ctrls.wrQLenPdf::31                 542172                       # What write queue length does an incoming req see
system.mem_ctrls.wrQLenPdf::32                 542172                       # What write queue length does an incoming req see
system.mem_ctrls.wrQLenPdf::33                      0                       # What write queue length does an incoming req see
system.mem_ctrls.wrQLenPdf::34                      0                       # What write queue length does an incoming req see
system.mem_ctrls.wrQLenPdf::35                      0                       # What write queue length does an incoming req see
system.mem_ctrls.wrQLenPdf::36                      0                       # What write queue length does an incoming req see
system.mem_ctrls.wrQLenPdf::37                      0                       # What write queue length does an incoming req see
system.mem_ctrls.wrQLenPdf::38                      0                       # What write queue length does an incoming req see
system.mem_ctrls.wrQLenPdf::39                      0                       # What write queue length does an incoming req see
system.mem_ctrls.wrQLenPdf::40                      0                       # What write queue length does an incoming req see
system.mem_ctrls.wrQLenPdf::41                      0                       # What write queue length does an incoming req see
system.mem_ctrls.wrQLenPdf::42                      0                       # What write queue length does an incoming req see
system.mem_ctrls.wrQLenPdf::43                      0                       # What write queue length does an incoming req see
system.mem_ctrls.wrQLenPdf::44                      0                       # What write queue length does an incoming req see
system.mem_ctrls.wrQLenPdf::45                      0                       # What write queue length does an incoming req see
system.mem_ctrls.wrQLenPdf::46                      0                       # What write queue length does an incoming req see
system.mem_ctrls.wrQLenPdf::47                      0                       # What write queue length does an incoming req see
system.mem_ctrls.wrQLenPdf::48                      0                       # What write queue length does an incoming req see
system.mem_ctrls.wrQLenPdf::49                      0                       # What write queue length does an incoming req see
system.mem_ctrls.wrQLenPdf::50                      0                       # What write queue length does an incoming req see
system.mem_ctrls.wrQLenPdf::51                      0                       # What write queue length does an incoming req see
system.mem_ctrls.wrQLenPdf::52                      0                       # What write queue length does an incoming req see
system.mem_ctrls.wrQLenPdf::53                      0                       # What write queue length does an incoming req see
system.mem_ctrls.wrQLenPdf::54                      0                       # What write queue length does an incoming req see
system.mem_ctrls.wrQLenPdf::55                      0                       # What write queue length does an incoming req see
system.mem_ctrls.wrQLenPdf::56                      0                       # What write queue length does an incoming req see
system.mem_ctrls.wrQLenPdf::57                      0                       # What write queue length does an incoming req see
system.mem_ctrls.wrQLenPdf::58                      0                       # What write queue length does an incoming req see
system.mem_ctrls.wrQLenPdf::59                      0                       # What write queue length does an incoming req see
system.mem_ctrls.wrQLenPdf::60                      0                       # What write queue length does an incoming req see
system.mem_ctrls.wrQLenPdf::61                      0                       # What write queue length does an incoming req see
system.mem_ctrls.wrQLenPdf::62                      0                       # What write queue length does an incoming req see
system.mem_ctrls.wrQLenPdf::63                      0                       # What write queue length does an incoming req see
system.mem_ctrls.bytesPerActivate::samples    150188304                       # Bytes accessed per row activation
system.mem_ctrls.bytesPerActivate::mean    703.453855                       # Bytes accessed per row activation
system.mem_ctrls.bytesPerActivate::gmean   495.847413                       # Bytes accessed per row activation
system.mem_ctrls.bytesPerActivate::stdev   394.100654                       # Bytes accessed per row activation
system.mem_ctrls.bytesPerActivate::0-127     23139410     15.41%     15.41% # Bytes accessed per row activation
system.mem_ctrls.bytesPerActivate::128-255      9496510      6.32%     21.73% # Bytes accessed per row activation
system.mem_ctrls.bytesPerActivate::256-383      9482996      6.31%     28.04% # Bytes accessed per row activation
system.mem_ctrls.bytesPerActivate::384-511      8085164      5.38%     33.43% # Bytes accessed per row activation
system.mem_ctrls.bytesPerActivate::512-639      4244857      2.83%     36.25% # Bytes accessed per row activation
system.mem_ctrls.bytesPerActivate::640-767      3260518      2.17%     38.42% # Bytes accessed per row activation
system.mem_ctrls.bytesPerActivate::768-895      8330425      5.55%     43.97% # Bytes accessed per row activation
system.mem_ctrls.bytesPerActivate::896-1023      5776217      3.85%     47.82% # Bytes accessed per row activation
system.mem_ctrls.bytesPerActivate::1024-1151     78372207     52.18%    100.00% # Bytes accessed per row activation
system.mem_ctrls.bytesPerActivate::total    150188304                       # Bytes accessed per row activation
system.mem_ctrls.rdPerTurnAround::samples       542172                       # Reads before turning the bus around for writes
system.mem_ctrls.rdPerTurnAround::mean    2785.822259                       # Reads before turning the bus around for writes
system.mem_ctrls.rdPerTurnAround::stdev  295796.362879                       # Reads before turning the bus around for writes
system.mem_ctrls.rdPerTurnAround::0-8.38861e+06       542162    100.00%    100.00% # Reads before turning the bus around for writes
system.mem_ctrls.rdPerTurnAround::1.67772e+07-2.51658e+07            8      0.00%    100.00% # Reads before turning the bus around for writes
system.mem_ctrls.rdPerTurnAround::1.42606e+08-1.50995e+08            2      0.00%    100.00% # Reads before turning the bus around for writes
system.mem_ctrls.rdPerTurnAround::total        542172                       # Reads before turning the bus around for writes
system.mem_ctrls.wrPerTurnAround::samples       542172                       # Writes before turning the bus around for reads
system.mem_ctrls.wrPerTurnAround::mean      16.004626                       # Writes before turning the bus around for reads
system.mem_ctrls.wrPerTurnAround::gmean     16.004359                       # Writes before turning the bus around for reads
system.mem_ctrls.wrPerTurnAround::stdev      0.096132                       # Writes before turning the bus around for reads
system.mem_ctrls.wrPerTurnAround::16           540919     99.77%     99.77% # Writes before turning the bus around for reads
system.mem_ctrls.wrPerTurnAround::18             1251      0.23%    100.00% # Writes before turning the bus around for reads
system.mem_ctrls.wrPerTurnAround::19                2      0.00%    100.00% # Writes before turning the bus around for reads
system.mem_ctrls.wrPerTurnAround::total        542172                       # Writes before turning the bus around for reads
system.mem_ctrls.bytesReadDRAM           105095197824                       # Total number of bytes read from DRAM
system.mem_ctrls.bytesReadWrQ              1215183808                       # Total number of bytes read from write queue
system.mem_ctrls.bytesWritten               555344640                       # Total number of bytes written to DRAM
system.mem_ctrls.bytesReadSys             12973721512                       # Total read bytes from the system interface side
system.mem_ctrls.bytesWrittenSys           1050341652                       # Total written bytes from the system interface side
system.mem_ctrls.avgRdBW                      1178.92                       # Average DRAM read bandwidth in MiByte/s
system.mem_ctrls.avgWrBW                         6.23                       # Average achieved write bandwidth in MiByte/s
system.mem_ctrls.avgRdBWSys                    145.53                       # Average system read bandwidth in MiByte/s
system.mem_ctrls.avgWrBWSys                     11.78                       # Average system write bandwidth in MiByte/s
system.mem_ctrls.peakBW                      12800.00                       # Theoretical peak bandwidth in MiByte/s
system.mem_ctrls.busUtil                         9.26                       # Data bus utilization in percentage
system.mem_ctrls.busUtilRead                     9.21                       # Data bus utilization in percentage for reads
system.mem_ctrls.busUtilWrite                    0.05                       # Data bus utilization in percentage for writes
system.mem_ctrls.totGap                  89145052185000                       # Total gap between requests
system.mem_ctrls.avgGap                      49402.68                       # Average gap between requests
system.mem_ctrls.masterReadBytes::.cpu.inst  11129013712                       # Per-master bytes read from memory
system.mem_ctrls.masterReadBytes::.cpu.data   1709833270                       # Per-master bytes read from memory
system.mem_ctrls.masterWriteBytes::.cpu.data     67705736                       # Per-master bytes write to memory
system.mem_ctrls.masterReadRate::.cpu.inst 124841630.910614013672                       # Per-master bytes read from memory rate (Bytes/sec)
system.mem_ctrls.masterReadRate::.cpu.data 19180349.628095436841                       # Per-master bytes read from memory rate (Bytes/sec)
system.mem_ctrls.masterWriteRate::.cpu.data 759500.771854514140                       # Per-master bytes write to memory rate (Bytes/sec)
system.mem_ctrls.masterReadAccesses::.cpu.inst   1391126714                       # Per-master read serviced memory accesses
system.mem_ctrls.masterReadAccesses::.cpu.data    269972999                       # Per-master read serviced memory accesses
system.mem_ctrls.masterWriteAccesses::.cpu.data    143358077                       # Per-master write serviced memory accesses
system.mem_ctrls.masterReadTotalLat::.cpu.inst 30078393571750                       # Per-master read total memory access latency
system.mem_ctrls.masterReadTotalLat::.cpu.data 5961414681500                       # Per-master read total memory access latency
system.mem_ctrls.masterWriteTotalLat::.cpu.data 1929328716196250                       # Per-master write total memory access latency
system.mem_ctrls.masterReadAvgLat::.cpu.inst     21621.61                       # Per-master read average memory access latency
system.mem_ctrls.masterReadAvgLat::.cpu.data     22081.52                       # Per-master read average memory access latency
system.mem_ctrls.masterWriteAvgLat::.cpu.data  13458109.63                       # Per-master write average memory access latency
system.mem_ctrls.pageHitRate                    90.90                       # Row buffer hit rate, read and write combined
system.mem_ctrls.rank1.actEnergy         703115005740                       # Energy for activate commands per rank (pJ)
system.mem_ctrls.rank1.preEnergy         373714476960                       # Energy for precharge commands per rank (pJ)
system.mem_ctrls.rank1.readEnergy        7765470268920                       # Energy for read commands per rank (pJ)
system.mem_ctrls.rank1.writeEnergy        22113668700                       # Energy for write commands per rank (pJ)
system.mem_ctrls.rank1.refreshEnergy     7037034872400.000977                       # Energy for refresh commands per rank (pJ)
system.mem_ctrls.rank1.actBackEnergy     39040149524010                       # Energy for active background per rank (pJ)
system.mem_ctrls.rank1.preBackEnergy     1355784680160                       # Energy for precharge background per rank (pJ)
system.mem_ctrls.rank1.actPowerDownEnergy            0                       # Energy for active power-down per rank (pJ)
system.mem_ctrls.rank1.prePowerDownEnergy            0                       # Energy for precharge power-down per rank (pJ)
system.mem_ctrls.rank1.selfRefreshEnergy            0                       # Energy for self refresh per rank (pJ)
system.mem_ctrls.rank1.totalEnergy       56297382496890                       # Total energy per rank (pJ)
system.mem_ctrls.rank1.averagePower        631.525599                       # Core power per rank (mW)
system.mem_ctrls.rank1.totalIdleTime                0                       # Total Idle time Per DRAM Rank
system.mem_ctrls.rank1.memoryStateTime::IDLE 2844670888500                       # Time in different power states
system.mem_ctrls.rank1.memoryStateTime::REF 2976749100000                       # Time in different power states
system.mem_ctrls.rank1.memoryStateTime::SREF            0                       # Time in different power states
system.mem_ctrls.rank1.memoryStateTime::PRE_PDN            0                       # Time in different power states
system.mem_ctrls.rank1.memoryStateTime::ACT 83323632273500                       # Time in different power states
system.mem_ctrls.rank1.memoryStateTime::ACT_PDN            0                       # Time in different power states
system.mem_ctrls.rank0.actEnergy         369229506240                       # Energy for activate commands per rank (pJ)
system.mem_ctrls.rank0.preEnergy         196250136720                       # Energy for precharge commands per rank (pJ)
system.mem_ctrls.rank0.readEnergy        3959212738320                       # Energy for read commands per rank (pJ)
system.mem_ctrls.rank0.writeEnergy        23181628500                       # Energy for write commands per rank (pJ)
system.mem_ctrls.rank0.refreshEnergy     7037034872400.000977                       # Energy for refresh commands per rank (pJ)
system.mem_ctrls.rank0.actBackEnergy     32423447073600                       # Energy for active background per rank (pJ)
system.mem_ctrls.rank0.preBackEnergy     6927744638400                       # Energy for precharge background per rank (pJ)
system.mem_ctrls.rank0.actPowerDownEnergy            0                       # Energy for active power-down per rank (pJ)
system.mem_ctrls.rank0.prePowerDownEnergy            0                       # Energy for precharge power-down per rank (pJ)
system.mem_ctrls.rank0.selfRefreshEnergy            0                       # Energy for self refresh per rank (pJ)
system.mem_ctrls.rank0.totalEnergy       50936100594180                       # Total energy per rank (pJ)
system.mem_ctrls.rank0.averagePower        571.384494                       # Core power per rank (mW)
system.mem_ctrls.rank0.totalIdleTime                0                       # Total Idle time Per DRAM Rank
system.mem_ctrls.rank0.memoryStateTime::IDLE 17668646445500                       # Time in different power states
system.mem_ctrls.rank0.memoryStateTime::REF 2976749100000                       # Time in different power states
system.mem_ctrls.rank0.memoryStateTime::SREF            0                       # Time in different power states
system.mem_ctrls.rank0.memoryStateTime::PRE_PDN            0                       # Time in different power states
system.mem_ctrls.rank0.memoryStateTime::ACT 68499656716500                       # Time in different power states
system.mem_ctrls.rank0.memoryStateTime::ACT_PDN            0                       # Time in different power states
system.mem_ctrls.power_state.pwrStateResidencyTicks::UNDEFINED 89145052262000                       # Cumulative time (in ticks) in various power states
system.cpu_clk_domain.clock                       500                       # Clock period in ticks
system.cpu.dtb.walker.power_state.pwrStateResidencyTicks::UNDEFINED 89145052262000                       # Cumulative time (in ticks) in various power states
system.cpu.interrupts.clk_domain.clock           8000                       # Clock period in ticks
system.cpu.itb.walker.power_state.pwrStateResidencyTicks::UNDEFINED 89145052262000                       # Cumulative time (in ticks) in various power states
system.cpu.power_state.numTransitions               1                       # Number of power state transitions
system.cpu.power_state.pwrStateResidencyTicks::ON 89145052262000                       # Cumulative time (in ticks) in various power states

---------- End Simulation Statistics   ----------
